<!-- generated on Tue Feb  9 22:21:01 2021 by Eclipse SUMO netconvert Version 1.8.0
<configuration xmlns:xsi="http://www.w3.org/2001/XMLSchema-instance" xsi:noNamespaceSchemaLocation="http://sumo.dlr.de/xsd/netconvertConfiguration.xsd">

    <input>
        <node-files value="./converted_scenarios/scenario-factory/BEL_Zwevegem-4_3_I-1-1/BEL_Zwevegem-4_3_I-1-1.nod.xml"/>
        <edge-files value="./converted_scenarios/scenario-factory/BEL_Zwevegem-4_3_I-1-1/BEL_Zwevegem-4_3_I-1-1.edg.xml"/>
        <connection-files value="./converted_scenarios/scenario-factory/BEL_Zwevegem-4_3_I-1-1/BEL_Zwevegem-4_3_I-1-1.con.xml"/>
        <tllogic-files value="./converted_scenarios/scenario-factory/BEL_Zwevegem-4_3_I-1-1/BEL_Zwevegem-4_3_I-1-1.tll.xml"/>
        <type-files value="/home/zen/commonroad-interactive-benchmarks/install/commonroad-map-tool/crmapconverter/sumo_map/templates/DEU.typ.xml"/>
    </input>

    <output>
        <output-file value="./converted_scenarios/scenario-factory/BEL_Zwevegem-4_3_I-1-1/BEL_Zwevegem-4_3_I-1-1.net.xml"/>
    </output>

    <processing>
        <geometry.remove.keep-edges.explicit value="true"/>
        <geometry.avoid-overlap value="true"/>
        <offset.disable-normalization value="true"/>
    </processing>

    <junctions>
        <no-turnarounds value="true"/>
        <junctions.internal-link-detail value="20"/>
    </junctions>

    <report>
        <aggregate-warnings value="5"/>
    </report>

    <random_number>
        <seed value="1234"/>
    </random_number>

</configuration>
--><net xmlns:xsi="http://www.w3.org/2001/XMLSchema-instance" version="1.6" junctionCornerDetail="5" junctionLinkDetail="20" limitTurnSpeed="5.50" xsi:noNamespaceSchemaLocation="http://sumo.dlr.de/xsd/net_file.xsd">

    <location netOffset="0.00,0.00" convBoundary="-815.63,-404.00,-652.99,-301.66" origBoundary="-815.63,-404.00,-652.99,-301.66" projParameter="!"/>

    <type id="highway.bridleway" priority="1" speed="2.78" allow="pedestrian" oneway="1" width="2.00"/>
    <type id="highway.bus_guideway" priority="1" speed="27.78" allow="bus" oneway="1"/>
    <type id="highway.cycleway" priority="1" speed="8.33" allow="bicycle" oneway="0" width="1.00"/>
    <type id="highway.footway" priority="1" speed="2.78" allow="pedestrian" oneway="1" width="2.00"/>
    <type id="highway.ford" priority="1" speed="2.78" allow="army" oneway="0"/>
    <type id="highway.living_street" priority="2" speed="2.78" disallow="tram rail_urban rail rail_electric rail_fast ship" oneway="0"/>
    <type id="highway.motorway" priority="14" speed="39.44" allow="private emergency authority army vip passenger hov taxi bus coach delivery truck trailer motorcycle evehicle custom1 custom2" oneway="1"/>
    <type id="highway.motorway_link" priority="9" speed="22.22" allow="private emergency authority army vip passenger hov taxi bus coach delivery truck trailer motorcycle evehicle custom1 custom2" oneway="1"/>
    <type id="highway.path" priority="1" speed="2.78" allow="pedestrian bicycle" oneway="0" width="2.00"/>
    <type id="highway.pedestrian" priority="1" speed="2.78" allow="pedestrian" oneway="1" width="2.00"/>
    <type id="highway.primary" priority="12" speed="27.78" disallow="pedestrian tram rail_urban rail rail_electric rail_fast ship" oneway="0"/>
    <type id="highway.primary_link" priority="7" speed="22.22" disallow="pedestrian tram rail_urban rail rail_electric rail_fast ship" oneway="0"/>
    <type id="highway.raceway" priority="15" speed="83.33" allow="vip" oneway="0"/>
    <type id="highway.residential" priority="3" speed="13.89" disallow="pedestrian tram rail_urban rail rail_electric rail_fast ship" oneway="0"/>
    <type id="highway.secondary" priority="11" speed="27.78" disallow="pedestrian tram rail_urban rail rail_electric rail_fast ship" oneway="0"/>
    <type id="highway.secondary_link" priority="6" speed="22.22" disallow="pedestrian tram rail_urban rail rail_electric rail_fast ship" oneway="0"/>
    <type id="highway.service" priority="1" speed="5.56" allow="pedestrian delivery bicycle" oneway="0"/>
    <type id="highway.stairs" priority="1" speed="1.39" allow="pedestrian" oneway="1" width="2.00"/>
    <type id="highway.step" priority="1" speed="1.39" allow="pedestrian" oneway="1" width="2.00"/>
    <type id="highway.steps" priority="1" speed="1.39" allow="pedestrian" oneway="1" width="2.00"/>
    <type id="highway.tertiary" priority="10" speed="22.22" disallow="pedestrian tram rail_urban rail rail_electric rail_fast ship" oneway="0"/>
    <type id="highway.tertiary_link" priority="5" speed="22.22" disallow="pedestrian tram rail_urban rail rail_electric rail_fast ship" oneway="0"/>
    <type id="highway.track" priority="1" speed="5.56" allow="pedestrian motorcycle moped bicycle" oneway="0"/>
    <type id="highway.trunk" priority="13" speed="27.78" disallow="pedestrian bicycle tram rail_urban rail rail_electric rail_fast ship" oneway="0"/>
    <type id="highway.trunk_link" priority="8" speed="22.22" disallow="pedestrian bicycle tram rail_urban rail rail_electric rail_fast ship" oneway="0"/>
    <type id="highway.unclassified" priority="4" speed="13.89" disallow="pedestrian tram rail_urban rail rail_electric rail_fast ship" oneway="0"/>
    <type id="highway.unsurfaced" priority="1" speed="8.33" disallow="tram rail_urban rail rail_electric rail_fast ship" oneway="0"/>
    <type id="railway.highspeed" priority="21" speed="69.44" allow="rail_fast" oneway="1"/>
    <type id="railway.light_rail" priority="19" speed="27.78" allow="rail_urban" oneway="1"/>
    <type id="railway.preserved" priority="16" speed="27.78" allow="rail" oneway="1"/>
    <type id="railway.rail" priority="20" speed="44.44" allow="rail" oneway="1"/>
    <type id="railway.subway" priority="18" speed="27.78" allow="rail_urban" oneway="1"/>
    <type id="railway.tram" priority="17" speed="13.89" allow="tram" oneway="1"/>

    <edge id=":31_0" function="internal">
        <lane id=":31_0_0" index="0" disallow="pedestrian tram rail_urban rail rail_electric rail_fast ship" speed="25.42" length="21.03" width="3.50" shape="-721.40,-308.81 -722.22,-308.93 -723.13,-309.00 -724.12,-309.00 -725.18,-308.96 -726.29,-308.87 -727.46,-308.74 -728.66,-308.57 -729.88,-308.37 -731.12,-308.14 -732.37,-307.90 -733.61,-307.63 -734.83,-307.36 -736.03,-307.08 -737.19,-306.81 -738.30,-306.53 -739.35,-306.27 -740.34,-306.02 -741.24,-305.79 -742.06,-305.59"/>
    </edge>
    <edge id=":31_1" function="internal">
        <lane id=":31_1_0" index="0" disallow="pedestrian tram rail_urban rail rail_electric rail_fast ship" speed="36.11" length="29.54" width="3.50" shape="-721.31,-308.79 -738.85,-312.73 -749.16,-314.75 -750.20,-314.93"/>
    </edge>
    <edge id=":31_2" function="internal">
        <lane id=":31_2_0" index="0" disallow="pedestrian tram rail_urban rail rail_electric rail_fast ship" speed="11.85" length="34.99" width="3.50" shape="-721.31,-308.78 -725.28,-309.92 -727.77,-310.90 -730.16,-312.13 -732.37,-313.64 -733.39,-314.52 -734.33,-315.48 -735.17,-316.51 -735.92,-317.63 -736.56,-318.81 -737.07,-320.05 -737.47,-321.33 -737.75,-322.64 -737.93,-323.97 -737.98,-326.65 -737.71,-329.32 -737.17,-331.95 -736.43,-334.54"/>
    </edge>
    <edge id=":31_3" function="internal">
        <lane id=":31_3_0" index="0" disallow="pedestrian tram rail_urban rail rail_electric rail_fast ship" speed="10.82" length="28.99" width="3.50" shape="-733.10,-333.47 -733.75,-331.22 -734.20,-328.97 -734.43,-326.72 -734.38,-324.48 -734.24,-323.43 -734.01,-322.38 -733.70,-321.36 -733.29,-320.39 -732.78,-319.46 -732.19,-318.58 -731.52,-317.76 -730.76,-317.00 -729.97,-316.31 -728.11,-315.04 -726.11,-314.01 -723.98,-313.18 -720.61,-312.21"/>
    </edge>
    <edge id=":31_4" function="internal">
        <lane id=":31_4_0" index="0" disallow="pedestrian tram rail_urban rail rail_electric rail_fast ship" speed="36.11" length="27.51" width="3.50" shape="-733.10,-333.47 -741.59,-307.30"/>
    </edge>
    <edge id=":31_5" function="internal">
        <lane id=":31_5_0" index="0" disallow="pedestrian tram rail_urban rail rail_electric rail_fast ship" speed="11.62" length="27.43" width="3.50" shape="-733.10,-333.47 -734.80,-328.76 -736.31,-325.34 -738.12,-322.07 -739.54,-320.02 -741.18,-318.15 -742.10,-317.31 -743.10,-316.56 -744.16,-315.91 -745.29,-315.40 -746.49,-315.03 -747.72,-314.84 -748.96,-314.80 -750.20,-314.93"/>
    </edge>
    <edge id=":31_6" function="internal">
        <lane id=":31_6_0" index="0" disallow="pedestrian tram rail_urban rail rail_electric rail_fast ship" speed="10.55" length="22.47" width="3.50" shape="-749.65,-318.38 -748.78,-318.30 -747.91,-318.34 -747.05,-318.51 -746.21,-318.82 -745.40,-319.25 -744.62,-319.78 -743.88,-320.41 -743.19,-321.10 -741.88,-322.73 -740.73,-324.48 -739.22,-327.36 -737.92,-330.36 -736.43,-334.54"/>
    </edge>
    <edge id=":31_7" function="internal">
        <lane id=":31_7_0" index="0" disallow="pedestrian tram rail_urban rail rail_electric rail_fast ship" speed="36.11" length="29.69" width="3.50" shape="-749.65,-318.38 -748.56,-318.20 -738.16,-316.16 -720.61,-312.21"/>
    </edge>
    <edge id=":31_8" function="internal">
        <lane id=":31_8_0" index="0" disallow="pedestrian tram rail_urban rail rail_electric rail_fast ship" speed="10.75" length="14.93" width="3.50" shape="-749.63,-318.38 -749.47,-318.32 -749.29,-318.19 -749.09,-317.99 -748.86,-317.72 -748.61,-317.38 -748.33,-316.97 -748.04,-316.49 -747.72,-315.94 -747.38,-315.32 -747.01,-314.63 -746.63,-313.87 -746.22,-313.04 -745.79,-312.14 -745.33,-311.17 -744.85,-310.13 -744.35,-309.02 -743.83,-307.84 -743.29,-306.59 -742.72,-305.27"/>
    </edge>
    <edge id=":31_9" function="internal">
        <lane id=":31_9_0" index="0" disallow="pedestrian tram rail_urban rail rail_electric rail_fast ship" speed="7.92" length="15.33" width="3.50" shape="-746.70,-302.85 -745.20,-307.66 -745.01,-308.67 -744.92,-309.69 -744.99,-310.72 -745.26,-311.72 -745.74,-312.62 -746.43,-313.38 -747.28,-313.97 -748.21,-314.41 -749.19,-314.72 -750.20,-314.93"/>
    </edge>
    <edge id=":31_10" function="internal">
        <lane id=":31_10_0" index="0" disallow="pedestrian tram rail_urban rail rail_electric rail_fast ship" speed="36.11" length="33.31" width="3.50" shape="-746.70,-302.85 -740.96,-320.60 -736.43,-334.54"/>
    </edge>
    <edge id=":31_11" function="internal">
        <lane id=":31_11_0" index="0" disallow="pedestrian tram rail_urban rail rail_electric rail_fast ship" speed="12.29" length="31.98" width="3.50" shape="-746.70,-302.85 -744.96,-307.95 -744.24,-309.19 -743.33,-310.30 -742.26,-311.24 -741.09,-312.01 -739.87,-312.60 -738.62,-313.05 -737.34,-313.38 -734.87,-313.74 -732.39,-313.84 -728.79,-313.64 -725.24,-313.15 -720.61,-312.21"/>
    </edge>
    <edge id=":33_0" function="internal">
        <lane id=":33_0_0" index="0" disallow="pedestrian tram rail_urban rail rail_electric rail_fast ship" speed="8.13" length="12.97" width="3.50" shape="-750.44,-314.97 -751.26,-315.08 -752.05,-315.15 -752.81,-315.18 -753.53,-315.16 -754.23,-315.09 -754.89,-314.97 -755.52,-314.81 -756.12,-314.61 -756.69,-314.35 -757.23,-314.06 -757.73,-313.71 -758.20,-313.32 -758.64,-312.88 -759.05,-312.40 -759.43,-311.87 -759.78,-311.30 -760.09,-310.68 -760.38,-310.01 -760.63,-309.30"/>
    </edge>
    <edge id=":33_1" function="internal">
        <lane id=":33_1_0" index="0" disallow="pedestrian tram rail_urban rail rail_electric rail_fast ship" speed="36.11" length="30.13" width="3.50" shape="-750.42,-314.97 -751.55,-315.16 -755.79,-316.09 -762.02,-317.82 -769.16,-320.18 -779.14,-323.91"/>
    </edge>
    <edge id=":33_2" function="internal">
        <lane id=":33_2_0" index="0" disallow="pedestrian tram rail_urban rail rail_electric rail_fast ship" speed="10.24" length="26.48" width="3.50" shape="-750.42,-314.97 -751.81,-315.28 -753.11,-315.76 -754.32,-316.46 -755.38,-317.36 -756.24,-318.45 -756.90,-319.67 -757.35,-320.99 -757.64,-322.35 -757.79,-323.74 -757.77,-326.52 -757.45,-329.29 -756.58,-333.38 -755.42,-337.39"/>
    </edge>
    <edge id=":33_3" function="internal">
        <lane id=":33_3_0" index="0" disallow="pedestrian tram rail_urban rail rail_electric rail_fast ship" speed="9.04" length="20.37" width="3.50" shape="-752.08,-336.32 -753.10,-332.86 -753.88,-329.38 -754.20,-327.08 -754.30,-324.79 -754.24,-323.73 -754.08,-322.68 -753.82,-321.71 -753.45,-320.84 -752.97,-320.09 -752.39,-319.49 -751.68,-319.01 -750.84,-318.65 -749.85,-318.42"/>
    </edge>
    <edge id=":33_4" function="internal">
        <lane id=":33_4_0" index="0" disallow="pedestrian tram rail_urban rail rail_electric rail_fast ship" speed="36.11" length="3.88" width="3.50" shape="-752.09,-336.31 -753.28,-332.62"/>
    </edge>
    <edge id=":33_5" function="internal">
        <lane id=":33_5_0" index="0" disallow="pedestrian tram rail_urban rail rail_electric rail_fast ship" speed="11.97" length="34.54" width="3.50" shape="-752.08,-336.32 -752.51,-335.08 -753.47,-332.71 -754.66,-330.38 -756.11,-328.17 -757.86,-326.16 -758.89,-325.21 -759.99,-324.38 -761.16,-323.65 -762.40,-323.03 -763.69,-322.53 -765.01,-322.16 -766.36,-321.90 -767.74,-321.76 -770.38,-321.77 -773.00,-322.11 -775.54,-322.70 -779.14,-323.91"/>
    </edge>
    <edge id=":33_6" function="internal">
        <lane id=":33_6_0" index="0" disallow="pedestrian tram rail_urban rail rail_electric rail_fast ship" speed="10.95" length="28.72" width="3.50" shape="-777.87,-327.17 -774.75,-326.12 -772.59,-325.61 -770.40,-325.33 -768.19,-325.31 -767.09,-325.43 -766.00,-325.63 -764.94,-325.93 -763.91,-326.33 -762.92,-326.82 -761.98,-327.40 -761.10,-328.07 -760.28,-328.81 -758.82,-330.48 -757.61,-332.32 -756.60,-334.29 -755.77,-336.34 -755.42,-337.39"/>
    </edge>
    <edge id=":33_7" function="internal">
        <lane id=":33_7_0" index="0" disallow="pedestrian tram rail_urban rail rail_electric rail_fast ship" speed="36.11" length="29.40" width="3.50" shape="-777.87,-327.17 -768.06,-323.50 -761.09,-321.19 -755.02,-319.50 -750.92,-318.60 -749.85,-318.42"/>
    </edge>
    <edge id=":33_8" function="internal">
        <lane id=":33_8_0" index="0" disallow="pedestrian tram rail_urban rail rail_electric rail_fast ship" speed="15.57" length="23.80" width="3.50" shape="-777.86,-327.17 -776.83,-326.73 -775.82,-326.24 -774.84,-325.69 -773.88,-325.10 -772.95,-324.45 -772.05,-323.74 -771.17,-322.99 -770.31,-322.18 -769.48,-321.32 -768.68,-320.41 -767.89,-319.45 -767.14,-318.43 -766.41,-317.36 -765.70,-316.23 -765.02,-315.06 -764.37,-313.83 -763.74,-312.55 -763.13,-311.21 -762.55,-309.83"/>
    </edge>
    <edge id=":33_9" function="internal">
        <lane id=":33_9_0" index="0" disallow="pedestrian tram rail_urban rail rail_electric rail_fast ship" speed="11.23" length="26.59" width="3.50" shape="-765.35,-305.51 -764.08,-310.37 -764.04,-311.40 -764.17,-312.42 -764.46,-313.40 -764.89,-314.33 -765.43,-315.21 -766.07,-316.02 -766.76,-316.78 -768.30,-318.14 -769.97,-319.35 -772.62,-320.93 -775.38,-322.31 -779.14,-323.91"/>
    </edge>
    <edge id=":33_10" function="internal">
        <lane id=":33_10_0" index="0" disallow="pedestrian tram rail_urban rail rail_electric rail_fast ship" speed="36.11" length="33.39" width="3.50" shape="-765.35,-305.51 -759.28,-325.40 -755.42,-337.39"/>
    </edge>
    <edge id=":33_11" function="internal">
        <lane id=":33_11_0" index="0" disallow="pedestrian tram rail_urban rail rail_electric rail_fast ship" speed="10.52" length="23.08" width="3.50" shape="-765.35,-305.51 -763.83,-310.76 -763.28,-312.11 -762.60,-313.41 -761.79,-314.63 -760.83,-315.74 -759.72,-316.69 -758.48,-317.47 -757.13,-318.05 -755.72,-318.43 -754.27,-318.64 -752.80,-318.69 -751.34,-318.61 -749.85,-318.42"/>
    </edge>

    <edge id="37826" from="33" to="13" priority="3" type="highway.residential" spreadType="center" length="41.87" shape="-761.91,-322.29 -815.63,-344.18">
        <lane id="37826_0" index="0" disallow="pedestrian tram rail_urban rail rail_electric rail_fast ship" speed="36.11" length="41.87" width="3.50" customShape="1" shape="-779.14,-323.91 -780.12,-324.30 -787.64,-327.47 -793.61,-330.36 -799.86,-333.82 -806.79,-338.13 -815.63,-344.18"/>
    </edge>
    <edge id="37827" from="24" to="33" priority="3" type="highway.residential" spreadType="center" length="41.07" shape="-813.65,-347.06 -760.59,-325.53">
        <lane id="37827_0" index="0" disallow="pedestrian tram rail_urban rail rail_electric rail_fast ship" speed="36.11" length="41.07" width="3.50" customShape="1" shape="-813.65,-347.06 -804.91,-341.09 -798.12,-336.86 -792.02,-333.48 -786.19,-330.66 -778.81,-327.54 -777.86,-327.17"/>
    </edge>
    <edge id="37869" from="31" to="12" priority="3" type="highway.residential" spreadType="center" length="70.00" shape="-736.83,-320.18 -652.99,-325.01">
        <lane id="37869_0" index="0" disallow="pedestrian tram rail_urban rail rail_electric rail_fast ship" speed="36.11" length="70.00" width="3.50" customShape="1" shape="-720.61,-312.21 -715.22,-311.11 -710.76,-310.53 -706.76,-310.37 -703.26,-310.55 -699.30,-311.08 -691.91,-312.38 -684.10,-314.15 -676.39,-316.28 -668.30,-318.92 -660.34,-321.91 -652.99,-325.01"/>
    </edge>
    <edge id="37870" from="23" to="31" priority="3" type="highway.residential" spreadType="center" length="70.00" shape="-653.65,-320.93 -736.64,-316.69">
        <lane id="37870_0" index="0" disallow="pedestrian tram rail_urban rail rail_electric rail_fast ship" speed="36.11" length="70.00" width="3.50" customShape="1" shape="-653.65,-320.93 -659.60,-318.44 -667.70,-315.42 -675.93,-312.76 -683.79,-310.62 -691.74,-308.85 -699.28,-307.54 -703.39,-307.03 -707.06,-306.87 -711.23,-307.06 -715.87,-307.67 -721.40,-308.81"/>
    </edge>
    <edge id="37872" from="33" to="31" priority="3" type="highway.residential" spreadType="center" length="0.22" shape="-761.04,-325.66 -736.31,-320.14">
        <lane id="37872_0" index="0" disallow="pedestrian tram rail_urban rail rail_electric rail_fast ship" speed="36.11" length="0.22" width="3.50" customShape="1" shape="-749.85,-318.42 -749.63,-318.38"/>
    </edge>
    <edge id="37873" from="31" to="33" priority="3" type="highway.residential" spreadType="center" length="0.24" shape="-737.08,-316.73 -761.80,-322.26">
        <lane id="37873_0" index="0" disallow="pedestrian tram rail_urban rail rail_electric rail_fast ship" speed="36.11" length="0.24" width="3.50" customShape="1" shape="-750.20,-314.93 -750.33,-314.95 -750.44,-314.97"/>
    </edge>
    <edge id="38458" from="20" to="33" priority="3" type="highway.residential" spreadType="center" length="1.26" shape="-765.69,-304.30 -763.00,-324.32">
        <lane id="38458_0" index="0" disallow="pedestrian tram rail_urban rail rail_electric rail_fast ship" speed="36.11" length="1.26" width="3.50" customShape="1" shape="-765.69,-304.30 -765.35,-305.51"/>
    </edge>
    <edge id="38460" from="21" to="33" priority="3" type="highway.residential" spreadType="center" length="70.01" shape="-730.55,-402.92 -759.67,-323.30">
        <lane id="38460_0" index="0" disallow="pedestrian tram rail_urban rail rail_electric rail_fast ship" speed="36.11" length="70.01" width="3.50" customShape="1" shape="-730.55,-402.92 -739.73,-374.55 -752.09,-336.31"/>
    </edge>
    <edge id="38461" from="33" to="18" priority="3" type="highway.residential" spreadType="center" length="70.00" shape="-762.95,-324.50 -733.89,-404.00">
        <lane id="38461_0" index="0" disallow="pedestrian tram rail_urban rail rail_electric rail_fast ship" speed="36.11" length="70.00" width="3.50" customShape="1" shape="-755.42,-337.39 -743.06,-375.62 -733.89,-404.00"/>
    </edge>
    <edge id="38556" from="19" to="31" priority="3" type="highway.residential" spreadType="center" length="1.25" shape="-747.08,-301.66 -738.18,-319.36">
        <lane id="38556_0" index="0" disallow="pedestrian tram rail_urban rail rail_electric rail_fast ship" speed="36.11" length="1.25" width="3.50" customShape="1" shape="-747.08,-301.66 -746.70,-302.85"/>
    </edge>
    <edge id="38558" from="22" to="31" priority="3" type="highway.residential" spreadType="center" length="69.99" shape="-711.57,-400.07 -735.02,-317.92">
        <lane id="38558_0" index="0" disallow="pedestrian tram rail_urban rail rail_electric rail_fast ship" speed="36.11" length="69.99" width="3.50" customShape="1" shape="-711.57,-400.07 -721.22,-370.24 -733.10,-333.47"/>
    </edge>
    <edge id="38559" from="31" to="11" priority="3" type="highway.residential" spreadType="center" length="70.00" shape="-738.38,-318.88 -714.90,-401.15">
        <lane id="38559_0" index="0" disallow="pedestrian tram rail_urban rail rail_electric rail_fast ship" speed="36.11" length="70.00" width="3.50" customShape="1" shape="-736.43,-334.54 -724.55,-371.32 -714.90,-401.15"/>
    </edge>
    <edge id="38906" from="31" to="32" priority="3" type="highway.residential" spreadType="center" length="0.20" shape="-735.08,-317.75 -742.14,-305.61">
        <lane id="38906_0" index="0" disallow="pedestrian tram rail_urban rail rail_electric rail_fast ship" speed="36.11" length="0.20" width="3.50" customShape="1" shape="-742.72,-305.27 -742.64,-305.09"/>
    </edge>
    <edge id="38910" from="33" to="34" priority="3" type="highway.residential" spreadType="center" length="0.20" shape="-759.55,-323.98 -760.91,-308.42">
        <lane id="38910_0" index="0" disallow="pedestrian tram rail_urban rail rail_electric rail_fast ship" speed="36.11" length="0.20" width="3.50" customShape="1" shape="-760.63,-309.30 -760.69,-309.11"/>
    </edge>
    <edge id="38948" from="31" to="32" priority="3" type="highway.residential" spreadType="center" length="0.10">
        <lane id="38948_0" index="0" disallow="pedestrian tram rail_urban rail rail_electric rail_fast ship" speed="36.11" length="0.10" width="3.50" customShape="1" shape="-742.06,-305.59 -742.16,-305.57"/>
    </edge>
    <edge id="39111" from="31" to="32" priority="3" type="highway.residential" spreadType="center" length="1.78">
        <lane id="39111_0" index="0" disallow="pedestrian tram rail_urban rail rail_electric rail_fast ship" speed="36.11" length="1.78" width="3.50" customShape="1" shape="-741.59,-307.30 -742.14,-305.61"/>
    </edge>
    <edge id="39142" from="33" to="34" priority="3" type="highway.residential" spreadType="center" length="20.59">
        <lane id="39142_0" index="0" disallow="pedestrian tram rail_urban rail rail_electric rail_fast ship" speed="36.11" length="20.59" width="3.50" customShape="1" shape="-753.28,-332.62 -755.93,-324.36 -759.48,-312.99"/>
    </edge>
    <edge id="39871" from="33" to="34" priority="3" type="highway.residential" spreadType="center" length="0.20">
        <lane id="39871_0" index="0" disallow="pedestrian tram rail_urban rail rail_electric rail_fast ship" speed="36.11" length="0.20" width="3.50" customShape="1" shape="-762.55,-309.83 -762.48,-309.64"/>
    </edge>

    <junction id="11" type="dead_end" x="-714.90" y="-401.15" incLanes="38559_0" intLanes="" shape="-716.57,-401.69 -713.24,-400.61" rightOfWay="edgePriority"/>
    <junction id="12" type="dead_end" x="-652.99" y="-325.01" incLanes="37869_0" intLanes="" shape="-653.67,-326.62 -652.31,-323.40" rightOfWay="edgePriority"/>
    <junction id="13" type="dead_end" x="-815.63" y="-344.18" incLanes="37826_0" intLanes="" shape="-816.62,-342.73 -814.64,-345.62" rightOfWay="edgePriority"/>
    <junction id="18" type="dead_end" x="-733.89" y="-404.00" incLanes="38461_0" intLanes="" shape="-735.55,-404.53 -732.22,-403.46" rightOfWay="edgePriority"/>
    <junction id="19" type="dead_end" x="-747.08" y="-301.66" incLanes="" intLanes="" shape="-745.41,-301.13 -748.74,-302.20" rightOfWay="edgePriority"/>
    <junction id="20" type="dead_end" x="-765.69" y="-304.30" incLanes="" intLanes="" shape="-764.01,-303.83 -767.38,-304.77" rightOfWay="edgePriority"/>
    <junction id="21" type="dead_end" x="-730.55" y="-402.92" incLanes="" intLanes="" shape="-732.22,-403.46 -728.89,-402.39" rightOfWay="edgePriority"/>
    <junction id="22" type="dead_end" x="-711.57" y="-400.07" incLanes="" intLanes="" shape="-713.24,-400.61 -709.91,-399.54" rightOfWay="edgePriority"/>
    <junction id="23" type="dead_end" x="-653.65" y="-320.93" incLanes="" intLanes="" shape="-654.33,-322.55 -652.98,-319.32" rightOfWay="edgePriority"/>
    <junction id="24" type="dead_end" x="-813.65" y="-347.06" incLanes="" intLanes="" shape="-814.63,-345.62 -812.66,-348.50" rightOfWay="edgePriority"/>
    <junction id="31" type="priority" x="-736.69" y="-318.43" incLanes="37870_0 38558_0 37872_0 38556_0" intLanes=":31_0_0 :31_1_0 :31_2_0 :31_3_0 :31_4_0 :31_5_0 :31_6_0 :31_7_0 :31_8_0 :31_9_0 :31_10_0 :31_11_0" shape="-721.66,-307.07 -720.26,-313.93 -725.08,-315.38 -728.72,-317.52 -731.18,-320.34 -732.45,-323.85 -732.53,-328.05 -731.44,-332.93 -738.10,-335.08 -739.84,-330.23 -741.64,-326.31 -743.49,-323.35 -745.39,-321.32 -747.35,-320.24 -749.35,-320.11 -750.48,-313.20 -748.03,-311.75 -747.45,-310.34 -747.32,-308.48 -747.62,-306.17 -748.36,-303.40 -745.03,-302.31 -744.88,-302.26 -740.00,-306.87 -739.66,-309.13 -739.63,-310.58 -739.93,-311.22 -740.54,-311.04 -741.47,-310.06 -742.72,-308.27 -741.52,-302.55 -743.25,-307.84 -739.93,-306.76 -737.35,-308.49 -734.74,-308.74 -731.26,-308.59 -726.90,-308.04">
        <request index="0" response="000000010000" foes="000000010000" cont="0"/>
        <request index="1" response="111000110000" foes="111100110000" cont="0"/>
        <request index="2" response="110011110000" foes="110011110000" cont="0"/>
        <request index="3" response="000000000000" foes="100010000000" cont="0"/>
        <request index="4" response="000000000000" foes="100010000111" cont="0"/>
        <request index="5" response="011000000000" foes="011110000110" cont="0"/>
        <request index="6" response="010000000000" foes="010000000100" cont="0"/>
        <request index="7" response="110000111000" foes="110000111100" cont="0"/>
        <request index="8" response="110000100010" foes="110000100010" cont="0"/>
        <request index="9" response="000000000000" foes="000000100010" cont="0"/>
        <request index="10" response="000000000000" foes="000111100110" cont="0"/>
        <request index="11" response="000000011000" foes="000110011110" cont="0"/>
    </junction>
    <junction id="32" type="dead_end" x="-742.14" y="-305.61" incLanes="38906_0 38948_0 39111_0" intLanes="" shape="-740.45,-305.15 -743.82,-306.08 -740.52,-304.94 -743.75,-306.29 -740.47,-305.07 -743.80,-306.15"/>
    <junction id="33" type="priority" x="-761.30" y="-323.93" incLanes="37873_0 38460_0 37827_0 38458_0" intLanes=":33_0_0 :33_1_0 :33_2_0 :33_3_0 :33_4_0 :33_5_0 :33_6_0 :33_7_0 :33_8_0 :33_9_0 :33_10_0 :33_11_0" shape="-754.94,-333.15 -751.61,-332.08 -750.42,-335.77 -757.08,-337.93 -759.00,-333.46 -761.49,-330.18 -764.56,-328.07 -768.21,-327.13 -772.42,-327.38 -777.22,-328.79 -779.78,-322.28 -775.10,-320.12 -771.44,-317.73 -768.81,-315.12 -767.20,-312.28 -766.61,-309.22 -767.05,-305.93 -763.69,-304.99 -763.41,-304.92 -759.13,-308.37 -757.46,-317.07 -756.75,-322.12 -757.00,-323.54 -758.22,-321.32 -760.39,-315.46 -763.53,-305.96 -760.20,-304.89 -759.10,-307.74 -757.81,-310.00 -756.32,-311.68 -754.64,-312.79 -752.77,-313.30 -750.71,-313.24 -749.57,-320.14">
        <request index="0" response="000000000000" foes="000000000000" cont="0"/>
        <request index="1" response="000000000000" foes="111100100000" cont="0"/>
        <request index="2" response="000011000000" foes="110011100000" cont="0"/>
        <request index="3" response="000010000000" foes="100010000000" cont="0"/>
        <request index="4" response="000000000000" foes="000000000000" cont="0"/>
        <request index="5" response="011110000110" foes="011110000110" cont="0"/>
        <request index="6" response="000000000000" foes="010000000100" cont="0"/>
        <request index="7" response="000000000000" foes="110000101100" cont="0"/>
        <request index="8" response="000000000010" foes="110000100010" cont="0"/>
        <request index="9" response="000000000010" foes="000000100010" cont="0"/>
        <request index="10" response="000111000110" foes="000111100110" cont="0"/>
        <request index="11" response="000110001110" foes="000110001110" cont="0"/>
    </junction>
    <junction id="34" type="dead_end" x="-760.91" y="-308.42" incLanes="38910_0 39871_0 39142_0" intLanes="" shape="-757.81,-312.46 -761.11,-313.51 -762.13,-313.48 -765.38,-312.17"/>

    <connection from="37827" to="38461" fromLane="0" toLane="0" contPos="-4.00" shape="-777.87,-327.17 -774.75,-326.12 -772.59,-325.61 -770.40,-325.33 -768.19,-325.31 -767.09,-325.43 -766.00,-325.63 -764.94,-325.93 -763.91,-326.33 -762.92,-326.82 -761.98,-327.40 -761.10,-328.07 -760.28,-328.81 -758.82,-330.48 -757.61,-332.32 -756.60,-334.29 -755.77,-336.34 -755.42,-337.39" via=":33_6_0" dir="r" state="M"/>
    <connection from="37827" to="37872" fromLane="0" toLane="0" contPos="-4.00" shape="-777.87,-327.17 -768.06,-323.50 -761.09,-321.19 -755.02,-319.50 -750.92,-318.60 -749.85,-318.42" via=":33_7_0" dir="s" state="M"/>
    <connection from="37827" to="39871" fromLane="0" toLane="0" contPos="-4.00" via=":33_8_0" dir="l" state="m"/>
    <connection from="37870" to="38948" fromLane="0" toLane="0" contPos="-4.00" via=":31_0_0" dir="R" state="m"/>
    <connection from="37870" to="37873" fromLane="0" toLane="0" contPos="-4.00" shape="-721.40,-308.81 -738.85,-312.73 -749.16,-314.75 -750.20,-314.93" via=":31_1_0" dir="s" state="m"/>
    <connection from="37870" to="38559" fromLane="0" toLane="0" contPos="-4.00" shape="-721.40,-308.81 -725.28,-309.92 -727.77,-310.90 -730.16,-312.13 -732.37,-313.64 -733.39,-314.52 -734.33,-315.48 -735.17,-316.51 -735.92,-317.63 -736.56,-318.81 -737.07,-320.05 -737.47,-321.33 -737.75,-322.64 -737.93,-323.97 -737.98,-326.65 -737.71,-329.32 -737.17,-331.95 -736.43,-334.54" via=":31_2_0" dir="l" state="m"/>