<routes>
	<vehicle depart="0.1" departLane="0" departPos="1.0" departSpeed="7.1640524" id="334" type="bicycle">
		<route edges=":33_3 37872 37869"/>
	</vehicle>
	<vehicle depart="0.1" departLane="0" departPos="70.64563802317203" departSpeed="0.0" id="38" type="passenger">
		<route edges="38558 37869"/>
	</vehicle>
	<vehicle depart="0.1" departLane="0" departPos="31.430240588302116" departSpeed="1.6505608" id="311" type="passenger">
		<route edges=":31_1 37873 37826"/>
	</vehicle>
	<vehicle depart="0.1" departLane="0" departPos="60.89275676555099" departSpeed="0.0016505817" id="326" type="passenger">
		<route edges="38558 37869"/>
	</vehicle>
	<vehicle depart="0.1" departLane="0" departPos="53.38117869372922" departSpeed="0.012004547" id="329" type="passenger">
		<route edges="38558 37869"/>
	</vehicle>
	<vehicle depart="0.1" departLane="0" departPos="60.34600745743083" departSpeed="13.255198" id="338" type="passenger">
		<route edges="38460 39142"/>
	</vehicle>
	<vehicle depart="0.1" departLane="0" departPos="25.127008529401877" departSpeed="11.103481" id="341" type="passenger">
		<route edges=":33_10 38461"/>
	</vehicle>
	<vehicle depart="0.1" departLane="0" departPos="7.325406729886752" departSpeed="1.6541558" id="342" type="passenger">
		<route edges=":33_10 38461"/>
	</vehicle>
	<vehicle depart="0.1" departLane="0" departPos="25.888134138590893" departSpeed="8.1581007" id="328" type="motorcycle">
		<route edges=":33_1 37826"/>
	</vehicle>
	<vehicle depart="0.1" departLane="0" departPos="41.05529410138863" departSpeed="0.0" id="30" type="truck">
		<route edges="37827 38461"/>
	</vehicle>
</routes>
