<routes>
	<vehicle depart="0.1" departLane="4" departPos="25.624226232475028" departSpeed="15.24" id="363" type="passenger">
		<route edges="24"/>
	</vehicle>
	<vehicle depart="0.1" departLane="4" departPos="0" departSpeed="13.6977" id="376" type="passenger">
		<route edges="24"/>
	</vehicle>
	<vehicle depart="0.1" departLane="3" departPos="10.115703167256513" departSpeed="15.24" id="395" type="passenger">
		<route edges="24"/>
	</vehicle>
	<vehicle depart="0.1" departLane="4" departPos="131.3892709782783" departSpeed="15.6606" id="396" type="passenger">
		<route edges="23 24"/>
	</vehicle>
	<vehicle depart="0.1" departLane="4" departPos="106.44273948817717" departSpeed="12.9144" id="397" type="passenger">
		<route edges="23 24"/>
	</vehicle>
	<vehicle depart="0.1" departLane="4" departPos="156.08151228000816" departSpeed="15.2309" id="399" type="passenger">
		<route edges="23 24"/>
	</vehicle>
	<vehicle depart="0.1" departLane="2" departPos="137.7874733064069" departSpeed="14.6456" id="400" type="passenger">
		<route edges="23 24"/>
	</vehicle>
	<vehicle depart="0.1" departLane="3" departPos="142.19227778417496" departSpeed="17.1298" id="401" type="passenger">
		<route edges="23 24"/>
	</vehicle>
	<vehicle depart="0.1" departLane="1" departPos="151.298515116242" departSpeed="16.0721" id="402" type="passenger">
		<route edges="23 24 24"/>
	</vehicle>
	<vehicle depart="0.1" departLane="3" departPos="117.05694317371054" departSpeed="16.4653" id="403" type="passenger">
		<route edges="23 24"/>
	</vehicle>
	<vehicle depart="0.1" departLane="5" departPos="100.65389576376516" departSpeed="16.764" id="404" type="passenger">
		<route edges="23 24"/>
	</vehicle>
	<vehicle depart="0.1" departLane="4" departPos="115.68857348703159" departSpeed="13.716" id="405" type="passenger">
		<route edges="23 24"/>
	</vehicle>
	<vehicle depart="0.1" departLane="1" departPos="118.28349746737936" departSpeed="16.764" id="407" type="passenger">
		<route edges="23 24"/>
	</vehicle>
	<vehicle depart="0.1" departLane="2" departPos="121.07627628758215" departSpeed="13.716" id="408" type="passenger">
		<route edges="23 24"/>
	</vehicle>
	<vehicle depart="0.1" departLane="2" departPos="102.1056232839984" departSpeed="14.0086" id="410" type="passenger">
		<route edges="23 24"/>
	</vehicle>
	<vehicle depart="0.1" departLane="4" departPos="90.12879768425238" departSpeed="12.4541" id="411" type="passenger">
		<route edges="23 24"/>
	</vehicle>
	<vehicle depart="0.1" departLane="2" departPos="85.56757111899121" departSpeed="15.24" id="415" type="passenger">
		<route edges="23 24"/>
	</vehicle>
	<vehicle depart="0.1" departLane="1" departPos="86.60377929015193" departSpeed="15.2156" id="416" type="passenger">
		<route edges="23 24"/>
	</vehicle>
	<vehicle depart="0.1" departLane="5" departPos="70.99272200564948" departSpeed="14.4536" id="417" type="passenger">
		<route edges="23 24"/>
	</vehicle>
	<vehicle depart="0.1" departLane="4" departPos="69.05590593767705" departSpeed="13.7251" id="418" type="passenger">
		<route edges="23 24"/>
	</vehicle>
	<vehicle depart="0.1" departLane="3" departPos="90.49506810050403" departSpeed="15.24" id="419" type="passenger">
		<route edges="23 24"/>
	</vehicle>
	<vehicle depart="0.1" departLane="5" departPos="44.90820305871231" departSpeed="12.1829" id="422" type="passenger">
		<route edges="23 24"/>
	</vehicle>
	<vehicle depart="0.1" departLane="2" departPos="62.24307794874859" departSpeed="16.575" id="424" type="passenger">
		<route edges="23 24"/>
	</vehicle>
	<vehicle depart="0.1" departLane="4" departPos="29.90638947303556" departSpeed="13.4173" id="426" type="passenger">
		<route edges="23 24"/>
	</vehicle>
	<vehicle depart="0.1" departLane="5" departPos="22.507378750767764" departSpeed="12.192" id="427" type="passenger">
		<route edges="23 24"/>
	</vehicle>
	<vehicle depart="0.1" departLane="4" departPos="13.744453983777383" departSpeed="13.7069" id="431" type="passenger">
		<route edges="23 24"/>
	</vehicle>
	<vehicle depart="0.1" departLane="1" departPos="24.765898757588808" departSpeed="15.051" id="433" type="passenger">
		<route edges="23 24"/>
	</vehicle>
	<vehicle depart="0.1" departLane="0" departPos="18.820547029089965" departSpeed="13.4203" id="434" type="passenger">
		<route edges="23 23 24"/>
	</vehicle>
	<vehicle depart="0.1" departLane="2" departPos="9.731607020766042" departSpeed="14.4689" id="435" type="passenger">
		<route edges="23 24"/>
	</vehicle>
	<vehicle depart="0.1" departLane="3" departPos="19.90257280332526" departSpeed="13.7739" id="436" type="passenger">
		<route edges="23 24"/>
	</vehicle>
</routes>
