<routes>
	<vehicle depart="0.1" departLane="0" departPos="27.427269777909768" departSpeed="1.1519572" id="31" type="passenger">
		<route edges=":87_5 20210"/>
	</vehicle>
	<vehicle depart="0.1" departLane="0" departPos="7.905003183833238" departSpeed="10.451461" id="343" type="passenger">
		<route edges=":87_0 20610 19938"/>
	</vehicle>
	<vehicle depart="0.1" departLane="0" departPos="18.459897114539892" departSpeed="13.37881" id="346" type="passenger">
		<route edges=":81_0 20209 20610"/>
	</vehicle>
	<vehicle depart="0.1" departLane="0" departPos="2.5" departSpeed="11.418942" id="348" type="passenger">
		<route edges=":81_0 20209 20610"/>
	</vehicle>
	<vehicle depart="0.1" departLane="0" departPos="24.41239774870526" departSpeed="0.0012549503" id="30" type="truck">
		<route edges=":86_5 20216"/>
	</vehicle>
</routes>
