<routes>
	<vehicle depart="0.1" departLane="0" departPos="14.06515171440494" departSpeed="1.6186584" id="31" type="passenger">
		<route edges=":35_2 89589"/>
	</vehicle>
	<vehicle depart="0.1" departLane="0" departPos="64.50877501213152" departSpeed="0.82871132" id="37" type="passenger">
		<route edges="89736 89596"/>
	</vehicle>
	<vehicle depart="0.1" departLane="0" departPos="31.851192045332713" departSpeed="2.3421685" id="317" type="passenger">
		<route edges=":35_2 89589 89434"/>
	</vehicle>
	<vehicle depart="0.1" departLane="0" departPos="20.529677422736757" departSpeed="0.0" id="319" type="passenger">
		<route edges="89750 89596"/>
	</vehicle>
	<vehicle depart="0.1" departLane="0" departPos="10.596898894769891" departSpeed="13.721243" id="326" type="passenger">
		<route edges="89596 89453"/>
	</vehicle>
	<vehicle depart="0.1" departLane="0" departPos="9.193395829126159" departSpeed="14.064712" id="331" type="passenger">
		<route edges="89735"/>
	</vehicle>
	<vehicle depart="0.1" departLane="0" departPos="68.38711191404354" departSpeed="19.784784" id="335" type="passenger">
		<route edges=":34_1 89590 89596 89453"/>
	</vehicle>
	<vehicle depart="0.1" departLane="0" departPos="17.54820473087866" departSpeed="4.2183078" id="342" type="passenger">
		<route edges=":34_1 89590"/>
	</vehicle>
</routes>
