<routes>
	<vehicle depart="0.1" departLane="0" departPos="28.02063274837919" departSpeed="11.311452" id="32" type="passenger">
		<route edges=":69_0 4527 4609"/>
	</vehicle>
	<vehicle depart="0.1" departLane="0" departPos="21.2166441676351" departSpeed="4.7227873" id="318" type="passenger">
		<route edges=":71_5 4530 4800"/>
	</vehicle>
	<vehicle depart="0.1" departLane="0" departPos="10.752332897957084" departSpeed="3.1626906" id="325" type="passenger">
		<route edges=":71_5 4530 4800"/>
	</vehicle>
	<vehicle depart="0.1" departLane="0" departPos="12.283938021215747" departSpeed="3.8208466" id="329" type="passenger">
		<route edges=":69_4 4531 4600"/>
	</vehicle>
	<vehicle depart="0.1" departLane="0" departPos="7.553415167421158" departSpeed="3.9315608" id="337" type="passenger">
		<route edges=":69_0 4527"/>
	</vehicle>
	<vehicle depart="0.1" departLane="0" departPos="46.639481553435566" departSpeed="1.0299688" id="340" type="passenger">
		<route edges="4599 4530"/>
	</vehicle>
	<vehicle depart="0.1" departLane="0" departPos="26.253128987008214" departSpeed="5.0523676" id="345" type="passenger">
		<route edges="4799 4531"/>
	</vehicle>
	<vehicle depart="0.1" departLane="0" departPos="38.92646994322523" departSpeed="0.60134695" id="351" type="passenger">
		<route edges="4599 4534"/>
	</vehicle>
	<vehicle depart="0.1" departLane="0" departPos="27.39141826908417" departSpeed="3.5158577" id="360" type="passenger">
		<route edges=":71_1 4534 4658"/>
	</vehicle>
	<vehicle depart="0.1" departLane="0" departPos="37.99322122225774" departSpeed="6.9499969" id="34" type="motorcycle">
		<route edges="4799 4527"/>
	</vehicle>
</routes>
