<routes>
	<vehicle depart="0.1" departLane="0" departPos="8.472545371013886" departSpeed="1.6846025" id="312" type="bicycle">
		<route edges=":30_2 8269"/>
	</vehicle>
	<vehicle depart="0.1" departLane="0" departPos="4.783882356675514" departSpeed="0.075373078" id="30" type="passenger">
		<route edges=":30_2 8269"/>
	</vehicle>
	<vehicle depart="0.1" departLane="0" departPos="64.55564076096354" departSpeed="0.31659525" id="318" type="passenger">
		<route edges="8198 8269"/>
	</vehicle>
	<vehicle depart="0.1" departLane="0" departPos="48.110739411933324" departSpeed="1.1879299" id="321" type="passenger">
		<route edges="8198 8269"/>
	</vehicle>
	<vehicle depart="0.1" departLane="0" departPos="39.13163534704979" departSpeed="4.9196975" id="341" type="passenger">
		<route edges=":30_2 8269 8105"/>
	</vehicle>
	<vehicle depart="0.1" departLane="0" departPos="22.99979018754968" departSpeed="5.1485995" id="342" type="passenger">
		<route edges=":30_0 8269 8105"/>
	</vehicle>
	<vehicle depart="0.1" departLane="0" departPos="30.424392884420445" departSpeed="12.064817" id="346" type="passenger">
		<route edges=":30_1 8199"/>
	</vehicle>
	<vehicle depart="0.1" departLane="0" departPos="11.461914448958561" departSpeed="12.993211" id="348" type="passenger">
		<route edges=":30_1 8199"/>
	</vehicle>
	<vehicle depart="0.1" departLane="0" departPos="25.692579112350288" departSpeed="6.9100538" id="334" type="motorcycle">
		<route edges="8269 8142"/>
	</vehicle>
	<vehicle depart="0.1" departLane="0" departPos="11.097570927423764" departSpeed="6.6883152" id="336" type="motorcycle">
		<route edges="8269 8142"/>
	</vehicle>
</routes>
