<?xml version="1.0" encoding="UTF-8"?>

<!-- generated on Fri Dec 18 15:41:09 2020 by Eclipse SUMO netconvert Version 1.8.0
<configuration xmlns:xsi="http://www.w3.org/2001/XMLSchema-instance" xsi:noNamespaceSchemaLocation="http://sumo.dlr.de/xsd/netconvertConfiguration.xsd">

    <input>
        <node-files value="./converted_scenarios/hand-crafted/ZAM_Tutorial-1_1_I-1-1/nodes.net.xml"/>
        <edge-files value="./converted_scenarios/hand-crafted/ZAM_Tutorial-1_1_I-1-1/edges.net.xml"/>
        <connection-files value="./converted_scenarios/hand-crafted/ZAM_Tutorial-1_1_I-1-1/_connections.net.xml"/>
        <tllogic-files value="./converted_scenarios/hand-crafted/ZAM_Tutorial-1_1_I-1-1/_tll.net.xml"/>
    </input>

    <output>
        <output-file value="./converted_scenarios/hand-crafted/ZAM_Tutorial-1_1_I-1-1/ZAM_Tutorial-1_1_I-1-1.net.xml"/>
    </output>

    <processing>
        <plain.extend-edge-shape value="true"/>
        <geometry.remove.keep-edges.explicit value="true"/>
        <geometry.avoid-overlap value="true"/>
        <offset.disable-normalization value="true"/>
    </processing>

    <junctions>
        <no-turnarounds value="true"/>
        <junctions.internal-link-detail value="20"/>
    </junctions>

    <report>
        <aggregate-warnings value="5"/>
    </report>

    <random_number>
        <seed value="1234"/>
    </random_number>

</configuration>
-->

<net version="1.6" junctionCornerDetail="5" junctionLinkDetail="20" limitTurnSpeed="5.50" xmlns:xsi="http://www.w3.org/2001/XMLSchema-instance" xsi:noNamespaceSchemaLocation="http://sumo.dlr.de/xsd/net_file.xsd">

    <location netOffset="0.00,0.00" convBoundary="0.00,3.50,199.00,3.50" origBoundary="0.00,0.00,199.00,7.00" projParameter="!"/>

    <edge id="1" from="1" to="2" priority="1" spreadType="center" length="199.00">
        <lane id="1_0" index="0" disallow="rail_fast" speed="36.11" length="199.00" width="3.50" customShape="1" shape="0.00,0.00 1.00,0.00 2.00,0.00 3.00,0.00 4.00,0.00 5.00,0.00 6.00,0.00 7.00,0.00 8.00,0.00 9.00,0.00 10.00,0.00 11.00,0.00 12.00,0.00 13.00,0.00 14.00,0.00 15.00,0.00 16.00,0.00 17.00,0.00 18.00,0.00 19.00,0.00 20.00,0.00 21.00,0.00 22.00,0.00 23.00,0.00 24.00,0.00 25.00,0.00 26.00,0.00 27.00,0.00 28.00,0.00 29.00,0.00 30.00,0.00 31.00,0.00 32.00,0.00 33.00,0.00 34.00,0.00 35.00,0.00 36.00,0.00 37.00,0.00 38.00,0.00 39.00,0.00 40.00,0.00 41.00,0.00 42.00,0.00 43.00,0.00 44.00,0.00 45.00,0.00 46.00,0.00 47.00,0.00 48.00,0.00 49.00,0.00 50.00,0.00 51.00,0.00 52.00,0.00 53.00,0.00 54.00,0.00 55.00,0.00 56.00,0.00 57.00,0.00 58.00,0.00 59.00,0.00 60.00,0.00 61.00,0.00 62.00,0.00 63.00,0.00 64.00,0.00 65.00,0.00 66.00,0.00 67.00,0.00 68.00,0.00 69.00,0.00 70.00,0.00 71.00,0.00 72.00,0.00 73.00,0.00 74.00,0.00 75.00,0.00 76.00,0.00 77.00,0.00 78.00,0.00 79.00,0.00 80.00,0.00 81.00,0.00 82.00,0.00 83.00,0.00 84.00,0.00 85.00,0.00 86.00,0.00 87.00,0.00 88.00,0.00 89.00,0.00 90.00,0.00 91.00,0.00 92.00,0.00 93.00,0.00 94.00,0.00 95.00,0.00 96.00,0.00 97.00,0.00 98.00,0.00 99.00,0.00 100.00,0.00 101.00,0.00 102.00,0.00 103.00,0.00 104.00,0.00 105.00,0.00 106.00,0.00 107.00,0.00 108.00,0.00 109.00,0.00 110.00,0.00 111.00,0.00 112.00,0.00 113.00,0.00 114.00,0.00 115.00,0.00 116.00,0.00 117.00,0.00 118.00,0.00 119.00,0.00 120.00,0.00 121.00,0.00 122.00,0.00 123.00,0.00 124.00,0.00 125.00,0.00 126.00,0.00 127.00,0.00 128.00,0.00 129.00,0.00 130.00,0.00 131.00,0.00 132.00,0.00 133.00,0.00 134.00,0.00 135.00,0.00 136.00,0.00 137.00,0.00 138.00,0.00 139.00,0.00 140.00,0.00 141.00,0.00 142.00,0.00 143.00,0.00 144.00,0.00 145.00,0.00 146.00,0.00 147.00,0.00 148.00,0.00 149.00,0.00 150.00,0.00 151.00,0.00 152.00,0.00 153.00,0.00 154.00,0.00 155.00,0.00 156.00,0.00 157.00,0.00 158.00,0.00 159.00,0.00 160.00,0.00 161.00,0.00 162.00,0.00 163.00,0.00 164.00,0.00 165.00,0.00 166.00,0.00 167.00,0.00 168.00,0.00 169.00,0.00 170.00,0.00 171.00,0.00 172.00,0.00 173.00,0.00 174.00,0.00 175.00,0.00 176.00,0.00 177.00,0.00 178.00,0.00 179.00,0.00 180.00,0.00 181.00,0.00 182.00,0.00 183.00,0.00 184.00,0.00 185.00,0.00 186.00,0.00 187.00,0.00 188.00,0.00 189.00,0.00 190.00,0.00 191.00,0.00 192.00,0.00 193.00,0.00 194.00,0.00 195.00,0.00 196.00,0.00 197.00,0.00 198.00,0.00 199.00,0.00"/>
        <lane id="1_1" index="1" disallow="rail_fast" speed="36.11" length="199.00" width="3.50" customShape="1" shape="0.00,3.50 1.00,3.50 2.00,3.50 3.00,3.50 4.00,3.50 5.00,3.50 6.00,3.50 7.00,3.50 8.00,3.50 9.00,3.50 10.00,3.50 11.00,3.50 12.00,3.50 13.00,3.50 14.00,3.50 15.00,3.50 16.00,3.50 17.00,3.50 18.00,3.50 19.00,3.50 20.00,3.50 21.00,3.50 22.00,3.50 23.00,3.50 24.00,3.50 25.00,3.50 26.00,3.50 27.00,3.50 28.00,3.50 29.00,3.50 30.00,3.50 31.00,3.50 32.00,3.50 33.00,3.50 34.00,3.50 35.00,3.50 36.00,3.50 37.00,3.50 38.00,3.50 39.00,3.50 40.00,3.50 41.00,3.50 42.00,3.50 43.00,3.50 44.00,3.50 45.00,3.50 46.00,3.50 47.00,3.50 48.00,3.50 49.00,3.50 50.00,3.50 51.00,3.50 52.00,3.50 53.00,3.50 54.00,3.50 55.00,3.50 56.00,3.50 57.00,3.50 58.00,3.50 59.00,3.50 60.00,3.50 61.00,3.50 62.00,3.50 63.00,3.50 64.00,3.50 65.00,3.50 66.00,3.50 67.00,3.50 68.00,3.50 69.00,3.50 70.00,3.50 71.00,3.50 72.00,3.50 73.00,3.50 74.00,3.50 75.00,3.50 76.00,3.50 77.00,3.50 78.00,3.50 79.00,3.50 80.00,3.50 81.00,3.50 82.00,3.50 83.00,3.50 84.00,3.50 85.00,3.50 86.00,3.50 87.00,3.50 88.00,3.50 89.00,3.50 90.00,3.50 91.00,3.50 92.00,3.50 93.00,3.50 94.00,3.50 95.00,3.50 96.00,3.50 97.00,3.50 98.00,3.50 99.00,3.50 100.00,3.50 101.00,3.50 102.00,3.50 103.00,3.50 104.00,3.50 105.00,3.50 106.00,3.50 107.00,3.50 108.00,3.50 109.00,3.50 110.00,3.50 111.00,3.50 112.00,3.50 113.00,3.50 114.00,3.50 115.00,3.50 116.00,3.50 117.00,3.50 118.00,3.50 119.00,3.50 120.00,3.50 121.00,3.50 122.00,3.50 123.00,3.50 124.00,3.50 125.00,3.50 126.00,3.50 127.00,3.50 128.00,3.50 129.00,3.50 130.00,3.50 131.00,3.50 132.00,3.50 133.00,3.50 134.00,3.50 135.00,3.50 136.00,3.50 137.00,3.50 138.00,3.50 139.00,3.50 140.00,3.50 141.00,3.50 142.00,3.50 143.00,3.50 144.00,3.50 145.00,3.50 146.00,3.50 147.00,3.50 148.00,3.50 149.00,3.50 150.00,3.50 151.00,3.50 152.00,3.50 153.00,3.50 154.00,3.50 155.00,3.50 156.00,3.50 157.00,3.50 158.00,3.50 159.00,3.50 160.00,3.50 161.00,3.50 162.00,3.50 163.00,3.50 164.00,3.50 165.00,3.50 166.00,3.50 167.00,3.50 168.00,3.50 169.00,3.50 170.00,3.50 171.00,3.50 172.00,3.50 173.00,3.50 174.00,3.50 175.00,3.50 176.00,3.50 177.00,3.50 178.00,3.50 179.00,3.50 180.00,3.50 181.00,3.50 182.00,3.50 183.00,3.50 184.00,3.50 185.00,3.50 186.00,3.50 187.00,3.50 188.00,3.50 189.00,3.50 190.00,3.50 191.00,3.50 192.00,3.50 193.00,3.50 194.00,3.50 195.00,3.50 196.00,3.50 197.00,3.50 198.00,3.50 199.00,3.50"/>
        <lane id="1_2" index="2" disallow="rail_fast" speed="36.11" length="199.00" width="3.50" customShape="1" shape="0.00,7.00 1.00,7.00 2.00,7.00 3.00,7.00 4.00,7.00 5.00,7.00 6.00,7.00 7.00,7.00 8.00,7.00 9.00,7.00 10.00,7.00 11.00,7.00 12.00,7.00 13.00,7.00 14.00,7.00 15.00,7.00 16.00,7.00 17.00,7.00 18.00,7.00 19.00,7.00 20.00,7.00 21.00,7.00 22.00,7.00 23.00,7.00 24.00,7.00 25.00,7.00 26.00,7.00 27.00,7.00 28.00,7.00 29.00,7.00 30.00,7.00 31.00,7.00 32.00,7.00 33.00,7.00 34.00,7.00 35.00,7.00 36.00,7.00 37.00,7.00 38.00,7.00 39.00,7.00 40.00,7.00 41.00,7.00 42.00,7.00 43.00,7.00 44.00,7.00 45.00,7.00 46.00,7.00 47.00,7.00 48.00,7.00 49.00,7.00 50.00,7.00 51.00,7.00 52.00,7.00 53.00,7.00 54.00,7.00 55.00,7.00 56.00,7.00 57.00,7.00 58.00,7.00 59.00,7.00 60.00,7.00 61.00,7.00 62.00,7.00 63.00,7.00 64.00,7.00 65.00,7.00 66.00,7.00 67.00,7.00 68.00,7.00 69.00,7.00 70.00,7.00 71.00,7.00 72.00,7.00 73.00,7.00 74.00,7.00 75.00,7.00 76.00,7.00 77.00,7.00 78.00,7.00 79.00,7.00 80.00,7.00 81.00,7.00 82.00,7.00 83.00,7.00 84.00,7.00 85.00,7.00 86.00,7.00 87.00,7.00 88.00,7.00 89.00,7.00 90.00,7.00 91.00,7.00 92.00,7.00 93.00,7.00 94.00,7.00 95.00,7.00 96.00,7.00 97.00,7.00 98.00,7.00 99.00,7.00 100.00,7.00 101.00,7.00 102.00,7.00 103.00,7.00 104.00,7.00 105.00,7.00 106.00,7.00 107.00,7.00 108.00,7.00 109.00,7.00 110.00,7.00 111.00,7.00 112.00,7.00 113.00,7.00 114.00,7.00 115.00,7.00 116.00,7.00 117.00,7.00 118.00,7.00 119.00,7.00 120.00,7.00 121.00,7.00 122.00,7.00 123.00,7.00 124.00,7.00 125.00,7.00 126.00,7.00 127.00,7.00 128.00,7.00 129.00,7.00 130.00,7.00 131.00,7.00 132.00,7.00 133.00,7.00 134.00,7.00 135.00,7.00 136.00,7.00 137.00,7.00 138.00,7.00 139.00,7.00 140.00,7.00 141.00,7.00 142.00,7.00 143.00,7.00 144.00,7.00 145.00,7.00 146.00,7.00 147.00,7.00 148.00,7.00 149.00,7.00 150.00,7.00 151.00,7.00 152.00,7.00 153.00,7.00 154.00,7.00 155.00,7.00 156.00,7.00 157.00,7.00 158.00,7.00 159.00,7.00 160.00,7.00 161.00,7.00 162.00,7.00 163.00,7.00 164.00,7.00 165.00,7.00 166.00,7.00 167.00,7.00 168.00,7.00 169.00,7.00 170.00,7.00 171.00,7.00 172.00,7.00 173.00,7.00 174.00,7.00 175.00,7.00 176.00,7.00 177.00,7.00 178.00,7.00 179.00,7.00 180.00,7.00 181.00,7.00 182.00,7.00 183.00,7.00 184.00,7.00 185.00,7.00 186.00,7.00 187.00,7.00 188.00,7.00 189.00,7.00 190.00,7.00 191.00,7.00 192.00,7.00 193.00,7.00 194.00,7.00 195.00,7.00 196.00,7.00 197.00,7.00 198.00,7.00 199.00,7.00"/>
    </edge>

    <junction id="1" type="dead_end" x="0.00" y="3.50" incLanes="" intLanes="" shape="0.00,8.75 0.00,-1.75"/>
    <junction id="2" type="dead_end" x="199.00" y="3.50" incLanes="1_0 1_1 1_2" intLanes="" shape="199.00,-1.75 199.00,8.75"/>

</net>
