<routes>
	<vehicle depart="0.1" departLane="1" departPos="2.25" departSpeed="23.0" id="42" type="passenger">
		<route edges="1 1"/>
	</vehicle>
</routes>
