<!-- generated on 2020-12-18 15:43:52.231501 by ipykernel_launcher.py v1_2_0+5214-53edc58fcd
-->
<connections>
	<connection contPos="-4.0" from="50195" fromLane="0" keepClear="true" to="50211" toLane="0"/>
	<connection contPos="-4.0" from="50195" fromLane="0" keepClear="true" to="50209" toLane="0"/>
	<connection contPos="-4.0" from="50201" fromLane="0" keepClear="true" to="50215" toLane="0"/>
	<connection contPos="-4.0" from="50201" fromLane="0" keepClear="true" to="50213" toLane="0"/>
	<connection contPos="-4.0" from="50205" fromLane="0" keepClear="true" to="50217" toLane="0"/>
	<connection contPos="-4.0" from="50205" fromLane="0" keepClear="true" to="50207" toLane="0"/>
	<connection contPos="-4.0" from="50207" fromLane="0" keepClear="true" to="50197" toLane="0"/>
	<connection contPos="-4.0" from="50209" fromLane="0" keepClear="true" to="50203" toLane="0"/>
	<connection contPos="-4.0" from="50211" fromLane="0" keepClear="true" to="50199" toLane="0"/>
	<connection contPos="-4.0" from="50213" fromLane="0" keepClear="true" to="50197" toLane="0"/>
	<connection contPos="-4.0" from="50215" fromLane="0" keepClear="true" to="50203" toLane="0"/>
	<connection contPos="-4.0" from="50217" fromLane="0" keepClear="true" to="50199" toLane="0"/>
</connections>
