<routes>
	<vehicle depart="0.1" departLane="0" departPos="3.0568376242957456" departSpeed="0.1456948" id="315" type="bicycle">
		<route edges=":25_5 2047"/>
	</vehicle>
	<vehicle depart="0.1" departLane="0" departPos="15.210916955485159" departSpeed="6.9249191" id="329" type="bicycle">
		<route edges=":25_7 2478"/>
	</vehicle>
	<vehicle depart="0.1" departLane="0" departPos="6.2" departSpeed="12.14697" id="344" type="bus">
		<route edges="1755 2478"/>
	</vehicle>
	<vehicle depart="0.1" departLane="0" departPos="6.039396174034674" departSpeed="3.9249292" id="317" type="passenger">
		<route edges=":25_9 2047"/>
	</vehicle>
	<vehicle depart="0.1" departLane="1" departPos="11.466000381370026" departSpeed="2.8075708" id="318" type="passenger">
		<route edges="1755 2047"/>
	</vehicle>
	<vehicle depart="0.1" departLane="1" departPos="27.057696738613803" departSpeed="0.10199198" id="321" type="passenger">
		<route edges=":28_0 1755"/>
	</vehicle>
	<vehicle depart="0.1" departLane="0" departPos="45.898726647012325" departSpeed="10.028464" id="343" type="passenger">
		<route edges=":25_4 1753 3808 1701"/>
	</vehicle>
	<vehicle depart="0.1" departLane="0" departPos="12.383042994337856" departSpeed="11.103361" id="345" type="passenger">
		<route edges=":28_0 1755 2478"/>
	</vehicle>
	<vehicle depart="0.1" departLane="0" departPos="4.753585539685638" departSpeed="6.1263902" id="351" type="passenger">
		<route edges="1781 1753"/>
	</vehicle>
</routes>
