<routes>
	<vehicle depart="0.1" departLane="0" departPos="17.586583475916807" departSpeed="6.8695121" id="324" type="bicycle">
		<route edges="989"/>
	</vehicle>
	<vehicle depart="0.1" departLane="0" departPos="13.362936499091322" departSpeed="2.269968" id="340" type="bus">
		<route edges="950 989"/>
	</vehicle>
	<vehicle depart="0.1" departLane="0" departPos="2.5" departSpeed="0.0" id="318" type="passenger">
		<route edges="80 989"/>
	</vehicle>
	<vehicle depart="0.1" departLane="0" departPos="9.982543812655774" departSpeed="8.7929872" id="321" type="passenger">
		<route edges="951"/>
	</vehicle>
	<vehicle depart="0.1" departLane="0" departPos="2.5" departSpeed="4.6889371" id="322" type="passenger">
		<route edges=":15_0 951"/>
	</vehicle>
	<vehicle depart="0.1" departLane="1" departPos="31.881009886004925" departSpeed="16.736012" id="329" type="passenger">
		<route edges="925 989"/>
	</vehicle>
	<vehicle depart="0.1" departLane="0" departPos="2.5" departSpeed="6.0521802" id="330" type="passenger">
		<route edges=":15_7 989"/>
	</vehicle>
	<vehicle depart="0.1" departLane="0" departPos="60.304837505508644" departSpeed="5.935854" id="332" type="passenger">
		<route edges="950 2177"/>
	</vehicle>
	<vehicle depart="0.1" departLane="0" departPos="47.32430129273995" departSpeed="5.9979722" id="334" type="passenger">
		<route edges="950 2177"/>
	</vehicle>
	<vehicle depart="0.1" departLane="0" departPos="41.223897156867594" departSpeed="11.780827" id="335" type="passenger">
		<route edges="936 925 989"/>
	</vehicle>
	<vehicle depart="0.1" departLane="0" departPos="34.23746952242297" departSpeed="5.7772093" id="336" type="passenger">
		<route edges="950 989"/>
	</vehicle>
	<vehicle depart="0.1" departLane="0" departPos="22.858862750416726" departSpeed="8.2749888" id="337" type="passenger">
		<route edges="936 925 989"/>
	</vehicle>
	<vehicle depart="0.1" departLane="0" departPos="21.621294560475455" departSpeed="5.3586414" id="338" type="passenger">
		<route edges="950 989"/>
	</vehicle>
	<vehicle depart="0.1" departLane="0" departPos="10.799182540804086" departSpeed="5.1032549" id="339" type="passenger">
		<route edges="936 925 989"/>
	</vehicle>
	<vehicle depart="0.1" departLane="0" departPos="51.315501794010686" departSpeed="10.985238" id="327" type="motorcycle">
		<route edges="925 951"/>
	</vehicle>
	<vehicle depart="0.1" departLane="1" departPos="13.476597129633635" departSpeed="17.547949" id="331" type="motorcycle">
		<route edges=":17_0 925 989"/>
	</vehicle>
</routes>
