<routes>
	<vehicle depart="0.1" departLane="0" departPos="15.66751153082542" departSpeed="1.4255244" id="314" type="passenger">
		<route edges=":34_4 4502"/>
	</vehicle>
	<vehicle depart="0.1" departLane="0" departPos="27.46140796729003" departSpeed="15.30598" id="345" type="passenger">
		<route edges=":35_1 4505 4508"/>
	</vehicle>
	<vehicle depart="0.1" departLane="0" departPos="20.333334008010493" departSpeed="12.360066" id="348" type="passenger">
		<route edges="4502 4505"/>
	</vehicle>
	<vehicle depart="0.1" departLane="0" departPos="21.18935486407951" departSpeed="15.591568" id="357" type="passenger">
		<route edges=":34_1 4502 4875"/>
	</vehicle>
	<vehicle depart="0.1" departLane="0" departPos="30.129420186409366" departSpeed="9.3613069" id="362" type="motorcycle">
		<route edges="4499 4725"/>
	</vehicle>
	<vehicle depart="0.1" departLane="0" departPos="70.81823258135869" departSpeed="1.2878138" id="30" type="truck">
		<route edges="4874 4501"/>
	</vehicle>
</routes>
