<routes>
	<vehicle depart="0.1" departLane="0" departPos="6.248665660922528" departSpeed="0.89822063" id="323" type="passenger">
		<route edges=":112_4 20019"/>
	</vehicle>
	<vehicle depart="0.1" departLane="0" departPos="13.509682489579172" departSpeed="0.00054323849" id="355" type="passenger">
		<route edges="20023 21148"/>
	</vehicle>
	<vehicle depart="0.1" departLane="0" departPos="5.826852159616845" departSpeed="0.19731597" id="365" type="passenger">
		<route edges="20023 21148"/>
	</vehicle>
	<vehicle depart="0.1" departLane="0" departPos="31.551826821886035" departSpeed="7.769842" id="373" type="passenger">
		<route edges=":112_3 20273 20155"/>
	</vehicle>
	<vehicle depart="0.1" departLane="0" departPos="5.764276773012789" departSpeed="0.12374327" id="378" type="passenger">
		<route edges=":112_3 20273"/>
	</vehicle>
	<vehicle depart="0.1" departLane="0" departPos="31.536108499947844" departSpeed="1.6841776" id="391" type="passenger">
		<route edges="20020 20023"/>
	</vehicle>
	<vehicle depart="0.1" departLane="0" departPos="24.03867346808418" departSpeed="2.0188762" id="3100" type="passenger">
		<route edges="20020 20023"/>
	</vehicle>
	<vehicle depart="0.1" departLane="0" departPos="13.445273523229321" departSpeed="2.6124013" id="3108" type="passenger">
		<route edges="20020 20023"/>
	</vehicle>
	<vehicle depart="0.1" departLane="0" departPos="4.9833697519617814" departSpeed="2.1519186" id="3113" type="passenger">
		<route edges="20020 20023"/>
	</vehicle>
	<vehicle depart="0.1" departLane="0" departPos="40.33964648307393" departSpeed="0.98018137" id="387" type="truck">
		<route edges="20020 20023"/>
	</vehicle>
</routes>
