<routes>
	<vehicle depart="0.1" departLane="0" departPos="25.19487251720656" departSpeed="5.8602699" id="38" type="bicycle">
		<route edges="5799 5802"/>
	</vehicle>
	<vehicle depart="0.1" departLane="0" departPos="12.742847021029803" departSpeed="0.73194929" id="331" type="bus">
		<route edges=":73_6 5724"/>
	</vehicle>
	<vehicle depart="0.1" departLane="0" departPos="19.954017517160484" departSpeed="1.810348" id="31" type="passenger">
		<route edges=":73_11 5795"/>
	</vehicle>
	<vehicle depart="0.1" departLane="0" departPos="6.339350787311584" departSpeed="0.012360178" id="312" type="passenger">
		<route edges=":77_0 5725"/>
	</vehicle>
	<vehicle depart="0.1" departLane="0" departPos="67.2242984507302" departSpeed="0.3668806" id="326" type="passenger">
		<route edges="6267 5725"/>
	</vehicle>
	<vehicle depart="0.1" departLane="0" departPos="35.77101440743181" departSpeed="0.43477215" id="337" type="passenger">
		<route edges=":73_8 5728 5731"/>
	</vehicle>
	<vehicle depart="0.1" departLane="0" departPos="15.201670370908928" departSpeed="1.3925968" id="344" type="passenger">
		<route edges="5798 5728"/>
	</vehicle>
	<vehicle depart="0.1" departLane="0" departPos="28.925188146907765" departSpeed="12.258235" id="382" type="passenger">
		<route edges=":73_1 5799 5802"/>
	</vehicle>
	<vehicle depart="0.1" departLane="0" departPos="20.494284920796314" departSpeed="10.266529" id="387" type="passenger">
		<route edges=":73_1 5799 5802"/>
	</vehicle>
	<vehicle depart="0.1" departLane="0" departPos="3.75" departSpeed="0.91411846" id="321" type="truck">
		<route edges=":77_4 5721 6198"/>
	</vehicle>
</routes>
