<!-- generated on 2020-12-18 15:54:09.074108 by ipykernel_launcher.py v1_2_0+5214-53edc58fcd
-->
<edges>
	<edge from="1" function="normal" id="20" length="71.37130417161718" numLanes="5" priority="1" speed="36.11111111111111" spreadType="center" to="2">
		<lane allow="moped bicycle pedestrian custom1 trailer evehicle rail_urban ship private vip custom2 authority delivery rail_electric taxi tram army hov coach motorcycle passenger rail emergency" index="0" length="71.37130417161718" shape="-29.7359,28.40135 -27.568849999999998,26.29035 -23.029249999999998,22.04435 -19.5111,18.799999999999997 -16.6056,16.105900000000002 -8.7936,8.98915 -8.21335,8.4515 -5.8515999999999995,6.27985 1.4553,-0.33540000000000003 2.2547,-1.0677999999999999 5.1739,-3.7840499999999997 8.23615,-6.5333 13.04955,-10.7025 15.99705,-13.3474 17.545450000000002,-14.68685 23.483600000000003,-19.85085 23.49305,-19.859099999999998" speed="36.11111111111111" width="3.504782095936918"/>
		<lane allow="moped bicycle pedestrian custom1 trailer evehicle rail_urban ship private vip custom2 authority delivery rail_electric taxi tram army hov coach motorcycle passenger rail emergency" index="1" length="71.37130417161718" shape="-27.394750000000002,30.8973 -27.273000000000003,30.77555 -25.277299999999997,28.871000000000002 -19.27315,23.36435 -17.1256,21.37305 -16.368850000000002,20.6674 -14.242799999999999,18.704250000000002 -8.5899,13.5759 -6.38475,11.5552 -5.69605,10.91305 -3.51795,8.92435 2.6158,3.41005 4.6866,1.50875 5.508900000000001,0.7419499999999999 7.54735,-1.1151 13.3713,-6.2341999999999995 15.40745,-8.06735 16.2578,-8.8603 18.25725,-10.66715 24.3702,-15.9949 25.7684,-17.2521" speed="36.11111111111111" width="3.2505506856531254"/>
		<lane allow="moped bicycle pedestrian custom1 trailer evehicle rail_urban ship private vip custom2 authority delivery rail_electric taxi tram army hov coach motorcycle passenger rail emergency" index="2" length="71.37130417161718" shape="-25.11945,33.3231 -25.012900000000002,33.221999999999994 -22.75815,31.14845 -19.894,28.415 -17.0307,25.82245 -14.1238,23.15935 -11.513200000000001,20.790300000000002 -8.6021,18.10235 -6.3561,16.0562 -3.45235,13.38485 -0.72495,10.9275 2.20075,8.25615 4.84635,5.88705 7.746550000000001,3.23495 10.310400000000001,0.9433999999999999 13.238949999999999,-1.7245000000000001 15.50245,-3.6910499999999997 18.43025,-6.29275 21.1931,-8.67775 24.1318,-11.3335 26.5713,-13.47635 27.9628,-14.73785" speed="36.11111111111111" width="3.189710972799888"/>
		<lane allow="moped bicycle pedestrian custom1 trailer evehicle rail_urban ship private truck vip custom2 authority delivery rail_electric taxi tram army hov coach motorcycle passenger rail emergency" index="3" length="71.37130417161718" shape="-22.8076,35.787800000000004 -20.47715,33.61665 -20.46465,33.60415 -17.67485,30.911500000000004 -17.495199999999997,30.7437 -9.504249999999999,23.4916 -9.241399999999999,23.25035 -6.62615,20.8116 -6.36285,20.5681 1.34395,13.53565 1.5137500000000002,13.3792 4.22645,10.849599999999999 4.3597,10.72805 12.36985,3.5602 12.54695,3.39785 15.245349999999998,0.8815500000000001 15.36695,0.7717 23.40415,-6.15005 23.48845,-6.2262 26.34245,-8.885349999999999 26.46065,-8.9916 30.1799,-12.197600000000001" speed="36.11111111111111" width="3.2118758662189917"/>
		<lane allow="moped bicycle pedestrian custom1 trailer evehicle rail_urban ship private truck vip custom2 authority delivery rail_electric taxi tram army hov coach motorcycle passenger bus rail emergency" index="4" length="71.37130417161718" shape="-20.4573,38.293499999999995 -18.030299999999997,36.01705 -17.744999999999997,35.750249999999994 -15.1365,33.317750000000004 -14.8335,33.038 -7.18805,26.0434 -6.8973,25.774900000000002 -4.2766,23.33115 -3.9754000000000005,23.0527 3.6479,16.060200000000002 3.9383999999999997,15.7915 6.5575,13.34935 6.878450000000001,13.05715 14.6563,6.11585 14.94865,5.84915 17.5857,3.39125 17.92205,3.08885 25.7725,-3.7703499999999996 26.066200000000002,-4.03545 28.7173,-6.50525 29.08005,-6.824 32.4154,-9.63625" speed="36.11111111111111" width="3.479396558312949"/>
	</edge>
	<edge from="2" function="normal" id="16" length="109.3212136020689" numLanes="6" priority="1" speed="36.11111111111111" spreadType="center" to="3">
		<lane allow="moped bicycle pedestrian custom1 trailer evehicle rail_urban ship private truck vip custom2 authority delivery rail_electric taxi tram army hov coach motorcycle passenger rail emergency" index="0" length="109.3212136020689" shape="21.0268,-22.6848 23.19105,-24.5398 23.914450000000002,-25.18565 26.5843,-27.49965 27.30765,-28.1455 30.00975,-30.5238 30.7331,-31.1697 33.450500000000005,-33.5583 34.17385,-34.20415 36.8437,-36.5182 37.567099999999996,-37.16405 38.29405,-37.795249999999996 40.29755,-39.53765 41.02045,-40.1841 43.703900000000004,-42.54485 44.4268,-43.1913 47.17895,-45.5897 47.901849999999996,-46.236149999999995 50.47355,-48.4621 51.1964,-49.108549999999994 53.91325,-51.4401 54.63615,-52.0865 57.48005,-54.5975 58.20295,-55.24395 60.862,-57.59695 61.584900000000005,-58.2434 64.39795,-60.665099999999995 65.12084999999999,-61.311499999999995 67.75115,-63.6135 68.474,-64.25995 71.18190000000001,-66.6285 71.82645,-67.2054 71.9083,-67.27775 74.73345,-69.65934999999999 75.45705000000001,-70.3049 78.07785,-72.6617 78.8015,-73.3072 81.4724,-75.62025 82.196,-76.2658 84.98885,-78.7137 85.71244999999999,-79.35925 88.2227,-81.52225 88.94635,-82.1678 91.72135,-84.59315000000001 92.44495,-85.2387 95.14155,-87.50025 95.8652,-88.14585 98.60679999999999,-90.60034999999999 99.33045,-91.2459 99.98865,-91.81694999999999 102.06455,-93.61885 102.78805,-94.26455 103.29920000000001,-94.70515" speed="36.11111111111111" width="3.6814288122955756"/>
		<lane allow="moped bicycle pedestrian custom1 trailer evehicle rail_urban ship private vip custom2 authority delivery rail_electric taxi tram army hov coach motorcycle passenger rail emergency" index="1" length="109.3212136020689" shape="23.49305,-19.859099999999998 24.0989,-20.37595 25.679450000000003,-21.778950000000002 26.39235,-22.4365 27.0315,-23.00695 28.87625,-24.53305 29.53085,-25.0878 29.6438,-25.1789 30.2361,-25.67775 30.41755,-25.8428 32.510850000000005,-27.7365 32.53235,-27.75625 33.23065,-28.4005 33.3236,-28.484099999999998 35.887,-30.73805 36.5679,-31.345950000000002 36.6374,-31.4062 39.295649999999995,-33.7124 39.960800000000006,-34.3064 40.024249999999995,-34.3617 40.49535,-34.7721 42.762649999999994,-36.807900000000004 43.4022,-37.39775 43.42645,-37.41915 49.5614,-42.697199999999995 50.23605,-43.2874 50.334199999999996,-43.370850000000004 51.2422,-44.14385 51.3069,-44.2038 52.9752,-45.693349999999995 53.688050000000004,-46.35095 54.20455,-46.804950000000005 56.3541,-48.6389 57.009150000000005,-49.22115 57.060950000000005,-49.26649999999999 59.89325,-51.75325 60.58365,-52.3665 60.6333,-52.4099 62.245000000000005,-53.8283 63.3532,-54.8404 64.06615,-55.498000000000005 65.21955,-56.5195 66.81514999999999,-57.87885 67.45935,-58.44885 67.5289,-58.50905 70.1577,-60.787400000000005 70.8262,-61.37845 70.8976,-61.4402 73.21889999999999,-63.451 73.23995,-63.4694 73.6311,-63.81 74.36155,-64.46039999999999 76.2998,-66.0904 77.1919,-66.84514999999999 77.8592,-67.44145 80.4549,-69.7791 80.50460000000001,-69.82305 81.19935000000001,-70.4449 81.26925,-70.50550000000001 83.92605,-72.8117 84.07275,-72.94225 84.5789,-73.3939 84.63595,-73.44385 87.1314,-75.62845 87.45750000000001,-75.9178 88.1773,-76.5678 90.674,-78.7456 91.3657,-79.37025 91.40775,-79.4073 94.154,-81.83765 94.8738,-82.48765 95.82385,-83.2912 97.54820000000001,-84.73655 98.209,-85.32505 98.6685,-85.73474999999999 100.9135,-87.72579999999999 101.6486,-88.37514999999999 101.73185000000001,-88.4466 104.47094999999999,-90.80045 105.12165,-91.37455 105.21449999999999,-91.45384999999999 105.73725,-91.90039999999999" speed="36.11111111111111" width="3.5043532142179963"/>
		<lane allow="moped bicycle pedestrian custom1 trailer evehicle rail_urban ship private vip custom2 authority delivery rail_electric taxi tram army hov coach motorcycle passenger rail emergency" index="2" length="109.3212136020689" shape="25.7684,-17.2521 26.37435,-17.7982 27.25665,-18.621000000000002 29.13275,-20.28895 29.2956,-20.4219 32.667249999999996,-23.1922 35.191500000000005,-25.430300000000003 35.2984,-25.528950000000002 35.668099999999995,-25.869500000000002 35.724450000000004,-25.919249999999998 38.29135,-28.23695 42.75065,-32.085499999999996 45.62035,-34.64275 45.738299999999995,-34.743449999999996 46.3761,-35.287800000000004 46.45245,-35.3582 49.34965,-37.922 53.534549999999996,-41.4765 56.37935,-44.020399999999995 56.476749999999996,-44.10455 57.4822,-44.9741 60.43255,-47.6254 64.5406,-51.14855 67.40005,-53.6928 67.512,-53.78865 68.62565000000001,-54.7435 68.68475000000001,-54.7982 71.5824,-57.3887 75.5481,-60.8584 78.52195,-63.4767 79.64495,-64.46860000000001 82.62305,-67.06605 86.4378,-70.39585 89.43355,-73.002 90.54105,-73.97874999999999 93.51095,-76.59655000000001 98.03685,-80.59985 98.06735,-80.62639999999999 101.04885,-83.2276 101.64144999999999,-83.73985 104.6431,-86.32624999999999 108.0415,-89.24969999999999" speed="36.11111111111111" width="3.216879682238673"/>
		<lane allow="moped bicycle pedestrian custom1 trailer evehicle rail_urban ship private truck vip custom2 authority delivery rail_electric taxi tram army hov coach motorcycle passenger rail emergency" index="3" length="109.3212136020689" shape="27.9628,-14.73785 29.433500000000002,-16.0709 29.533749999999998,-16.15715 32.41005,-18.6418 35.3722,-21.2713 37.507549999999995,-23.0759 40.3442,-25.595100000000002 40.46275,-25.6959 43.47555,-28.257550000000002 46.43345,-30.89425 48.5754,-32.7439 51.4366,-35.3287 51.5274,-35.40735 54.590900000000005,-38.06365 57.54395,-40.7043 59.58585,-42.42705 62.44865,-44.94505 62.580749999999995,-45.05595 65.71645000000001,-47.6944 68.67665,-50.329049999999995 70.84125,-52.189449999999994 73.6978,-54.762 73.7688,-54.8244 76.94865,-57.6263 79.8767,-60.296350000000004 81.75995,-61.948 81.79695000000001,-61.98005 84.78715,-64.56935 88.0079,-67.3598 88.01910000000001,-67.3696 91.0096,-69.9711 92.78185,-71.5336 95.75505000000001,-74.1525 98.9504,-76.97695 101.93635,-79.5817 103.819,-81.2475 106.79095,-83.86775 110.15005,-86.82415" speed="36.11111111111111" width="3.117529318226217"/>
		<lane allow="moped bicycle pedestrian custom1 trailer evehicle rail_urban ship private vip custom2 authority delivery rail_electric taxi tram army hov coach motorcycle passenger rail emergency" index="4" length="109.3212136020689" shape="30.1799,-12.197600000000001 34.48865,-15.911649999999998 37.35315,-18.578699999999998 45.6811,-25.683300000000003 48.63195,-28.4266 56.8024,-35.4484 59.659549999999996,-38.1118 67.90885,-45.160399999999996 70.84365,-47.8928 79.12424999999999,-55.0069 81.98015000000001,-57.667699999999996 89.95009999999999,-64.5845 90.23165,-64.82825 92.93695,-67.1799 93.22485,-67.4308 100.9919,-74.28905 104.03999999999999,-76.94085 112.27445,-84.29044999999999 112.31855,-84.32955" speed="36.11111111111111" width="3.2665363322638785"/>
		<lane allow="moped bicycle pedestrian custom1 trailer evehicle rail_urban ship private vip custom2 authority delivery rail_electric taxi tram army hov coach motorcycle passenger rail emergency" index="5" length="109.3212136020689" shape="32.4154,-9.63625 36.748450000000005,-13.2898 39.7166,-16.0382 40.069,-16.35165 48.1393,-23.27975 51.09505,-26.02095 51.460449999999994,-26.34195 59.097449999999995,-32.776250000000005 62.06615,-35.524950000000004 62.40185,-35.8277 70.29865,-42.763 70.5146,-42.9584 73.23859999999999,-45.49435 73.5984,-45.81175 81.36545,-52.3963 84.32990000000001,-55.14255 84.6703,-55.448350000000005 92.1887,-62.00535 92.5771,-62.34355 95.17675,-64.60335 95.55449999999999,-64.93260000000001 103.33015,-71.72455 103.7174,-72.06195 106.31705,-74.32185 106.64089999999999,-74.6069 114.59190000000001,-81.69235 114.6028,-81.70185000000001" speed="36.11111111111111" width="3.479158429850529"/>
	</edge>
	<edge from="4" function="normal" id="17" length="72.10812764181627" numLanes="1" priority="1" speed="36.11111111111111" spreadType="center" to="2">
		<lane allow="moped bicycle pedestrian custom1 trailer evehicle rail_urban ship private truck vip custom2 authority delivery rail_electric taxi tram army hov coach motorcycle passenger bus rail emergency" index="0" length="72.10812764181627" shape="-34.4075,23.4209 -29.445050000000002,19.4628 -24.3169,15.28885 -16.5953,9.0031 -14.94115,7.63645 -6.38955,0.53315 5.4555,-9.25225 5.7767,-9.5177 11.63355,-14.49945 15.093499999999999,-17.504350000000002 21.0268,-22.6848" speed="36.11111111111111" width="3.6400067087850263"/>
	</edge>
</edges>
