<!-- generated on 2020-12-18 15:54:09.155757 by ipykernel_launcher.py v1_2_0+5214-53edc58fcd
-->
<nodes>
	<node id="1" type="from" x="-25.103" y="33.34061"/>
	<node id="2" type="to" x="27.96391" y="-14.73658"/>
	<node id="3" type="to" x="109.02489166666665" y="-88.11846666666666"/>
	<node id="4" type="from" x="-34.4075" y="23.4209"/>
</nodes>
