<?xml version="1.0" encoding="UTF-8"?>

<!-- generated on Fri Dec 18 15:54:09 2020 by Eclipse SUMO netconvert Version 1.8.0
<configuration xmlns:xsi="http://www.w3.org/2001/XMLSchema-instance" xsi:noNamespaceSchemaLocation="http://sumo.dlr.de/xsd/netconvertConfiguration.xsd">

    <input>
        <node-files value="./converted_scenarios/NGSIM/US101/USA_US101-19_1_I-1-1/nodes.net.xml"/>
        <edge-files value="./converted_scenarios/NGSIM/US101/USA_US101-19_1_I-1-1/edges.net.xml"/>
        <connection-files value="./converted_scenarios/NGSIM/US101/USA_US101-19_1_I-1-1/_connections.net.xml"/>
        <tllogic-files value="./converted_scenarios/NGSIM/US101/USA_US101-19_1_I-1-1/_tll.net.xml"/>
    </input>

    <output>
        <output-file value="./converted_scenarios/NGSIM/US101/USA_US101-19_1_I-1-1/USA_US101-19_1_I-1-1.net.xml"/>
    </output>

    <processing>
        <plain.extend-edge-shape value="true"/>
        <geometry.remove.keep-edges.explicit value="true"/>
        <geometry.avoid-overlap value="true"/>
        <offset.disable-normalization value="true"/>
    </processing>

    <junctions>
        <no-turnarounds value="true"/>
        <junctions.internal-link-detail value="20"/>
    </junctions>

    <report>
        <aggregate-warnings value="5"/>
    </report>

    <random_number>
        <seed value="1234"/>
    </random_number>

</configuration>
-->

<net version="1.6" junctionCornerDetail="5" junctionLinkDetail="20" limitTurnSpeed="5.50" xmlns:xsi="http://www.w3.org/2001/XMLSchema-instance" xsi:noNamespaceSchemaLocation="http://sumo.dlr.de/xsd/net_file.xsd">

    <location netOffset="0.00,0.00" convBoundary="-34.41,-88.12,109.02,33.34" origBoundary="-34.41,-94.71,114.60,38.29" projParameter="!"/>

    <edge id=":2_0" function="internal">
        <lane id=":2_0_0" index="0" disallow="bus rail_fast" speed="36.11" length="5.26" width="3.68" shape="19.90,-21.70 23.87,-25.15"/>
    </edge>
    <edge id=":2_1" function="internal">
        <lane id=":2_1_0" index="0" disallow="bus truck rail_fast" speed="36.11" length="5.25" width="3.50" shape="22.36,-18.87 26.30,-22.35"/>
        <lane id=":2_1_1" index="1" disallow="bus truck rail_fast" speed="36.11" length="5.25" width="3.22" shape="24.65,-16.24 28.55,-19.77"/>
        <lane id=":2_1_2" index="2" disallow="bus truck rail_fast" speed="36.11" length="5.25" width="3.12" shape="26.84,-13.72 30.76,-17.22"/>
        <lane id=":2_1_3" index="3" disallow="bus truck rail_fast" speed="36.11" length="5.25" width="3.27" shape="29.03,-11.21 33.01,-14.64"/>
        <lane id=":2_1_4" index="4" disallow="bus truck rail_fast" speed="36.11" length="5.25" width="3.48" shape="31.25,-8.65 35.26,-12.04"/>
    </edge>

    <edge id="16" from="2" to="3" priority="1" spreadType="center" length="109.32">
        <lane id="16_0" index="0" disallow="bus rail_fast" speed="36.11" length="109.32" width="3.68" acceleration="1" customShape="1" shape="23.87,-25.15 26.58,-27.50 27.31,-28.15 30.01,-30.52 30.73,-31.17 33.45,-33.56 34.17,-34.20 36.84,-36.52 37.57,-37.16 38.29,-37.80 40.30,-39.54 41.02,-40.18 43.70,-42.54 44.43,-43.19 47.18,-45.59 47.90,-46.24 50.47,-48.46 51.20,-49.11 53.91,-51.44 54.64,-52.09 57.48,-54.60 58.20,-55.24 60.86,-57.60 61.58,-58.24 64.40,-60.67 65.12,-61.31 67.75,-63.61 68.47,-64.26 71.18,-66.63 71.83,-67.21 71.91,-67.28 74.73,-69.66 75.46,-70.30 78.08,-72.66 78.80,-73.31 81.47,-75.62 82.20,-76.27 84.99,-78.71 85.71,-79.36 88.22,-81.52 88.95,-82.17 91.72,-84.59 92.44,-85.24 95.14,-87.50 95.87,-88.15 98.61,-90.60 99.33,-91.25 99.99,-91.82 102.06,-93.62 102.79,-94.26 103.33,-94.73"/>
        <lane id="16_1" index="1" disallow="bus truck rail_fast" speed="36.11" length="109.32" width="3.50" customShape="1" shape="26.30,-22.35 26.39,-22.44 27.03,-23.01 28.88,-24.53 29.53,-25.09 29.64,-25.18 30.24,-25.68 30.42,-25.84 32.51,-27.74 33.23,-28.40 33.32,-28.48 35.89,-30.74 36.57,-31.35 39.30,-33.71 39.96,-34.31 40.50,-34.77 42.76,-36.81 43.40,-37.40 49.56,-42.70 50.24,-43.29 50.33,-43.37 51.24,-44.14 52.98,-45.69 53.69,-46.35 54.20,-46.80 56.35,-48.64 57.01,-49.22 59.89,-51.75 60.58,-52.37 62.25,-53.83 63.35,-54.84 64.07,-55.50 65.22,-56.52 66.82,-57.88 67.46,-58.45 70.16,-60.79 70.83,-61.38 73.22,-63.45 73.63,-63.81 74.36,-64.46 76.30,-66.09 77.19,-66.85 77.86,-67.44 80.45,-69.78 81.20,-70.44 83.93,-72.81 84.07,-72.94 84.58,-73.39 87.13,-75.63 87.46,-75.92 88.18,-76.57 90.67,-78.75 91.37,-79.37 94.15,-81.84 94.87,-82.49 95.82,-83.29 97.55,-84.74 98.21,-85.33 98.67,-85.73 100.91,-87.73 101.65,-88.38 101.73,-88.45 104.47,-90.80 105.12,-91.37 105.21,-91.45 105.75,-91.91"/>
        <lane id="16_2" index="2" disallow="bus truck rail_fast" speed="36.11" length="109.32" width="3.22" customShape="1" shape="28.55,-19.77 29.13,-20.29 29.30,-20.42 32.67,-23.19 35.19,-25.43 35.30,-25.53 35.67,-25.87 38.29,-28.24 42.75,-32.09 45.62,-34.64 45.74,-34.74 46.38,-35.29 46.45,-35.36 49.35,-37.92 53.53,-41.48 56.38,-44.02 56.48,-44.10 57.48,-44.97 60.43,-47.63 64.54,-51.15 67.40,-53.69 67.51,-53.79 68.63,-54.74 71.58,-57.39 75.55,-60.86 78.52,-63.48 79.64,-64.47 82.62,-67.07 86.44,-70.40 89.43,-73.00 90.54,-73.98 93.51,-76.60 98.04,-80.60 101.05,-83.23 101.64,-83.74 104.64,-86.33 108.05,-89.25"/>
        <lane id="16_3" index="3" disallow="bus rail_fast" speed="36.11" length="109.32" width="3.12" customShape="1" shape="30.76,-17.22 32.41,-18.64 35.37,-21.27 37.51,-23.08 40.34,-25.60 40.46,-25.70 43.48,-28.26 46.43,-30.89 48.58,-32.74 51.44,-35.33 51.53,-35.41 54.59,-38.06 57.54,-40.70 59.59,-42.43 62.45,-44.95 62.58,-45.06 65.72,-47.69 68.68,-50.33 70.84,-52.19 73.70,-54.76 76.95,-57.63 79.88,-60.30 81.76,-61.95 84.79,-64.57 88.01,-67.36 91.01,-69.97 92.78,-71.53 95.76,-74.15 98.95,-76.98 101.94,-79.58 103.82,-81.25 106.79,-83.87 110.15,-86.82"/>
        <lane id="16_4" index="4" disallow="bus truck rail_fast" speed="36.11" length="109.32" width="3.27" customShape="1" shape="33.01,-14.64 34.49,-15.91 37.35,-18.58 45.68,-25.68 48.63,-28.43 56.80,-35.45 59.66,-38.11 67.91,-45.16 70.84,-47.89 79.12,-55.01 81.98,-57.67 89.95,-64.58 90.23,-64.83 92.94,-67.18 93.22,-67.43 100.99,-74.29 104.04,-76.94 112.32,-84.33"/>
        <lane id="16_5" index="5" disallow="bus truck rail_fast" speed="36.11" length="109.32" width="3.48" customShape="1" shape="35.26,-12.04 36.75,-13.29 39.72,-16.04 40.07,-16.35 48.14,-23.28 51.10,-26.02 51.46,-26.34 59.10,-32.78 62.07,-35.52 62.40,-35.83 70.30,-42.76 70.51,-42.96 73.24,-45.49 73.60,-45.81 81.37,-52.40 84.33,-55.14 84.67,-55.45 92.19,-62.01 92.58,-62.34 95.18,-64.60 95.55,-64.93 103.33,-71.72 103.72,-72.06 106.32,-74.32 106.64,-74.61 114.60,-81.70"/>
    </edge>
    <edge id="17" from="4" to="2" priority="1" spreadType="center" length="72.11">
        <lane id="17_0" index="0" disallow="rail_fast" speed="36.11" length="72.11" width="3.64" customShape="1" shape="-34.41,23.42 -29.45,19.46 -24.32,15.29 -16.60,9.00 -14.94,7.64 -6.39,0.53 5.46,-9.25 5.78,-9.52 11.63,-14.50 15.09,-17.50 19.90,-21.70"/>
    </edge>
    <edge id="20" from="1" to="2" priority="1" spreadType="center" length="71.37">
        <lane id="20_0" index="0" disallow="bus truck rail_fast" speed="36.11" length="71.37" width="3.50" customShape="1" shape="-29.74,28.40 -27.57,26.29 -23.03,22.04 -19.51,18.80 -16.61,16.11 -8.79,8.99 -8.21,8.45 -5.85,6.28 1.46,-0.34 2.25,-1.07 5.17,-3.78 8.24,-6.53 13.05,-10.70 16.00,-13.35 17.55,-14.69 22.36,-18.87"/>
        <lane id="20_1" index="1" disallow="bus truck rail_fast" speed="36.11" length="71.37" width="3.25" customShape="1" shape="-27.39,30.90 -27.27,30.78 -25.28,28.87 -19.27,23.36 -17.13,21.37 -16.37,20.67 -14.24,18.70 -8.59,13.58 -6.38,11.56 -5.70,10.91 -3.52,8.92 2.62,3.41 4.69,1.51 5.51,0.74 7.55,-1.12 13.37,-6.23 15.41,-8.07 16.26,-8.86 18.26,-10.67 24.37,-15.99 24.65,-16.24"/>
        <lane id="20_2" index="2" disallow="bus truck rail_fast" speed="36.11" length="71.37" width="3.19" customShape="1" shape="-25.12,33.32 -25.01,33.22 -22.76,31.15 -19.89,28.41 -17.03,25.82 -14.12,23.16 -11.51,20.79 -8.60,18.10 -6.36,16.06 -3.45,13.38 -0.72,10.93 2.20,8.26 4.85,5.89 7.75,3.23 10.31,0.94 13.24,-1.72 15.50,-3.69 18.43,-6.29 21.19,-8.68 24.13,-11.33 26.57,-13.48 26.84,-13.72"/>
        <lane id="20_3" index="3" disallow="bus rail_fast" speed="36.11" length="71.37" width="3.21" customShape="1" shape="-22.81,35.79 -20.48,33.62 -17.67,30.91 -17.50,30.74 -9.50,23.49 -9.24,23.25 -6.63,20.81 -6.36,20.57 1.34,13.54 1.51,13.38 4.23,10.85 4.36,10.73 12.37,3.56 12.55,3.40 15.25,0.88 15.37,0.77 23.40,-6.15 23.49,-6.23 26.34,-8.89 26.46,-8.99 29.03,-11.21"/>
        <lane id="20_4" index="4" disallow="rail_fast" speed="36.11" length="71.37" width="3.48" customShape="1" shape="-20.46,38.29 -18.03,36.02 -17.74,35.75 -15.14,33.32 -14.83,33.04 -7.19,26.04 -6.90,25.77 -4.28,23.33 -3.98,23.05 3.65,16.06 3.94,15.79 6.56,13.35 6.88,13.06 14.66,6.12 14.95,5.85 17.59,3.39 17.92,3.09 25.77,-3.77 26.07,-4.04 28.72,-6.51 29.08,-6.82 31.25,-8.65"/>
    </edge>

    <junction id="1" type="dead_end" x="-25.10" y="33.34" incLanes="" intLanes="" shape="-19.27,39.56 -30.93,27.12"/>
    <junction id="2" type="priority" x="27.96" y="-14.74" incLanes="17_0 20_0 20_1 20_2 20_3 20_4" intLanes=":2_0_0 :2_1_0 :2_1_1 :2_1_2 :2_1_3 :2_1_4" shape="36.41,-10.72 22.67,-26.54 18.70,-23.07 21.09,-20.33 21.21,-20.20 32.39,-7.34">
        <request index="0" response="000000" foes="000000" cont="0"/>
        <request index="1" response="000000" foes="000000" cont="0"/>
        <request index="2" response="000000" foes="000000" cont="0"/>
        <request index="3" response="000000" foes="000000" cont="0"/>
        <request index="4" response="000000" foes="000000" cont="0"/>
        <request index="5" response="000000" foes="000000" cont="0"/>
    </junction>
    <junction id="3" type="dead_end" x="109.02" y="-88.12" incLanes="16_0 16_1 16_2 16_3 16_4 16_5" intLanes="" shape="102.12,-96.12 115.71,-80.36"/>
    <junction id="4" type="dead_end" x="-34.41" y="23.42" incLanes="" intLanes="" shape="-33.27,24.84 -35.54,22.00"/>

    <connection from="17" to="16" fromLane="0" toLane="0" contPos="-4.00" via=":2_0_0" dir="s" state="M"/>
    <connection from="20" to="16" fromLane="0" toLane="1" contPos="-4.00" via=":2_1_0" dir="s" state="M"/>
    <connection from="20" to="16" fromLane="1" toLane="2" contPos="-4.00" via=":2_1_1" dir="s" state="M"/>
    <connection from="20" to="16" fromLane="2" toLane="3" contPos="-4.00" via=":2_1_2" dir="s" state="M"/>
    <connection from="20" to="16" fromLane="3" toLane="4" contPos="-4.00" via=":2_1_3" dir="s" state="M"/>
    <connection from="20" to="16" fromLane="4" toLane="5" contPos="-4.00" via=":2_1_4" dir="s" state="M"/>

    <connection from=":2_0" to="16" fromLane="0" toLane="0" dir="s" state="M"/>
    <connection from=":2_1" to="16" fromLane="0" toLane="1" dir="s" state="M"/>
    <connection from=":2_1" to="16" fromLane="1" toLane="2" dir="s" state="M"/>
    <connection from=":2_1" to="16" fromLane="2" toLane="3" dir="s" state="M"/>
    <connection from=":2_1" to="16" fromLane="3" toLane="4" dir="s" state="M"/>
    <connection from=":2_1" to="16" fromLane="4" toLane="5" dir="s" state="M"/>

</net>
