<routes>
	<vehicle depart="0.1" departLane="0" departPos="69.02898448445283" departSpeed="0.0" id="39" type="bicycle">
		<route edges="8984 8987"/>
	</vehicle>
	<vehicle depart="0.1" departLane="0" departPos="25.348089836941607" departSpeed="0.27177596" id="31" type="passenger">
		<route edges=":62_3 8987"/>
	</vehicle>
	<vehicle depart="0.1" departLane="0" departPos="72.50000008164757" departSpeed="0.0" id="319" type="passenger">
		<route edges="8984 8987"/>
	</vehicle>
	<vehicle depart="0.1" departLane="0" departPos="62.52446302901462" departSpeed="1.3976385" id="322" type="passenger">
		<route edges="8828 8983"/>
	</vehicle>
	<vehicle depart="0.1" departLane="0" departPos="9.161134993376482" departSpeed="0.98390815" id="325" type="passenger">
		<route edges=":62_1 8983"/>
	</vehicle>
	<vehicle depart="0.1" departLane="0" departPos="30.833698152404747" departSpeed="0.86714415" id="326" type="passenger">
		<route edges="8828 8983"/>
	</vehicle>
	<vehicle depart="0.1" departLane="0" departPos="61.69547509019308" departSpeed="0.00050271254" id="328" type="passenger">
		<route edges="8984 8987"/>
	</vehicle>
	<vehicle depart="0.1" departLane="0" departPos="32.474516862256905" departSpeed="7.1992031" id="343" type="passenger">
		<route edges=":57_2 8935 8698"/>
	</vehicle>
	<vehicle depart="0.1" departLane="0" departPos="38.169147282197976" departSpeed="4.7695086" id="348" type="passenger">
		<route edges="8932 8935"/>
	</vehicle>
</routes>
