<routes>
	<vehicle depart="0.1" departLane="0" departPos="16.941743222283673" departSpeed="2.9713562" id="38" type="bicycle">
		<route edges=":75_1 70906"/>
	</vehicle>
	<vehicle depart="0.1" departLane="0" departPos="29.472649762309523" departSpeed="1.617488" id="32" type="passenger">
		<route edges=":75_3 70825"/>
	</vehicle>
	<vehicle depart="0.1" departLane="0" departPos="23.96071445123853" departSpeed="0.0" id="35" type="passenger">
		<route edges="70826 70910"/>
	</vehicle>
	<vehicle depart="0.1" departLane="0" departPos="19.648836573175775" departSpeed="0.19670014" id="311" type="passenger">
		<route edges=":74_5 70907"/>
	</vehicle>
	<vehicle depart="0.1" departLane="0" departPos="9.696327818406786" departSpeed="5.5425678" id="312" type="passenger">
		<route edges=":75_1 70906"/>
	</vehicle>
	<vehicle depart="0.1" departLane="0" departPos="11.445856623815478" departSpeed="5.6143143" id="316" type="passenger">
		<route edges=":77_8 70938 70935"/>
	</vehicle>
	<vehicle depart="0.1" departLane="0" departPos="4.928770805734448" departSpeed="0.53226732" id="318" type="passenger">
		<route edges="70939 70904"/>
	</vehicle>
	<vehicle depart="0.1" departLane="0" departPos="16.043841444339417" departSpeed="6.2809093" id="320" type="passenger">
		<route edges=":75_4 70906 70903"/>
	</vehicle>
	<vehicle depart="0.1" departLane="0" departPos="58.033484639979115" departSpeed="1.3514276" id="322" type="passenger">
		<route edges="70693 70907"/>
	</vehicle>
	<vehicle depart="0.1" departLane="0" departPos="34.52443596641979" departSpeed="1.8098286" id="323" type="motorcycle">
		<route edges="70693 70907"/>
	</vehicle>
</routes>
