<!-- generated on Tue Feb  9 22:12:06 2021 by Eclipse SUMO netconvert Version 1.8.0
<configuration xmlns:xsi="http://www.w3.org/2001/XMLSchema-instance" xsi:noNamespaceSchemaLocation="http://sumo.dlr.de/xsd/netconvertConfiguration.xsd">

    <input>
        <node-files value="./converted_scenarios/scenario-factory/ESP_PriegodeCordoba-6_1_I-1-1/ESP_PriegodeCordoba-6_1_I-1-1.nod.xml"/>
        <edge-files value="./converted_scenarios/scenario-factory/ESP_PriegodeCordoba-6_1_I-1-1/ESP_PriegodeCordoba-6_1_I-1-1.edg.xml"/>
        <connection-files value="./converted_scenarios/scenario-factory/ESP_PriegodeCordoba-6_1_I-1-1/ESP_PriegodeCordoba-6_1_I-1-1.con.xml"/>
        <tllogic-files value="./converted_scenarios/scenario-factory/ESP_PriegodeCordoba-6_1_I-1-1/ESP_PriegodeCordoba-6_1_I-1-1.tll.xml"/>
        <type-files value="/home/zen/commonroad-interactive-benchmarks/install/commonroad-map-tool/crmapconverter/sumo_map/templates/DEU.typ.xml"/>
    </input>

    <output>
        <output-file value="./converted_scenarios/scenario-factory/ESP_PriegodeCordoba-6_1_I-1-1/ESP_PriegodeCordoba-6_1_I-1-1.net.xml"/>
    </output>

    <processing>
        <geometry.remove.keep-edges.explicit value="true"/>
        <geometry.avoid-overlap value="true"/>
        <offset.disable-normalization value="true"/>
    </processing>

    <junctions>
        <no-turnarounds value="true"/>
        <junctions.internal-link-detail value="20"/>
    </junctions>

    <report>
        <aggregate-warnings value="5"/>
    </report>

    <random_number>
        <seed value="1234"/>
    </random_number>

</configuration>
--><net xmlns:xsi="http://www.w3.org/2001/XMLSchema-instance" version="1.6" junctionCornerDetail="5" junctionLinkDetail="20" limitTurnSpeed="5.50" xsi:noNamespaceSchemaLocation="http://sumo.dlr.de/xsd/net_file.xsd">

    <location netOffset="0.00,0.00" convBoundary="807.59,-1063.93,1023.60,-801.01" origBoundary="807.59,-1063.93,1023.60,-801.01" projParameter="!"/>

    <type id="highway.bridleway" priority="1" speed="2.78" allow="pedestrian" oneway="1" width="2.00"/>
    <type id="highway.bus_guideway" priority="1" speed="27.78" allow="bus" oneway="1"/>
    <type id="highway.cycleway" priority="1" speed="8.33" allow="bicycle" oneway="0" width="1.00"/>
    <type id="highway.footway" priority="1" speed="2.78" allow="pedestrian" oneway="1" width="2.00"/>
    <type id="highway.ford" priority="1" speed="2.78" allow="army" oneway="0"/>
    <type id="highway.living_street" priority="2" speed="2.78" disallow="tram rail_urban rail rail_electric rail_fast ship" oneway="0"/>
    <type id="highway.motorway" priority="14" speed="39.44" allow="private emergency authority army vip passenger hov taxi bus coach delivery truck trailer motorcycle evehicle custom1 custom2" oneway="1"/>
    <type id="highway.motorway_link" priority="9" speed="22.22" allow="private emergency authority army vip passenger hov taxi bus coach delivery truck trailer motorcycle evehicle custom1 custom2" oneway="1"/>
    <type id="highway.path" priority="1" speed="2.78" allow="pedestrian bicycle" oneway="0" width="2.00"/>
    <type id="highway.pedestrian" priority="1" speed="2.78" allow="pedestrian" oneway="1" width="2.00"/>
    <type id="highway.primary" priority="12" speed="27.78" disallow="pedestrian tram rail_urban rail rail_electric rail_fast ship" oneway="0"/>
    <type id="highway.primary_link" priority="7" speed="22.22" disallow="pedestrian tram rail_urban rail rail_electric rail_fast ship" oneway="0"/>
    <type id="highway.raceway" priority="15" speed="83.33" allow="vip" oneway="0"/>
    <type id="highway.residential" priority="3" speed="13.89" disallow="pedestrian tram rail_urban rail rail_electric rail_fast ship" oneway="0"/>
    <type id="highway.secondary" priority="11" speed="27.78" disallow="pedestrian tram rail_urban rail rail_electric rail_fast ship" oneway="0"/>
    <type id="highway.secondary_link" priority="6" speed="22.22" disallow="pedestrian tram rail_urban rail rail_electric rail_fast ship" oneway="0"/>
    <type id="highway.service" priority="1" speed="5.56" allow="pedestrian delivery bicycle" oneway="0"/>
    <type id="highway.stairs" priority="1" speed="1.39" allow="pedestrian" oneway="1" width="2.00"/>
    <type id="highway.step" priority="1" speed="1.39" allow="pedestrian" oneway="1" width="2.00"/>
    <type id="highway.steps" priority="1" speed="1.39" allow="pedestrian" oneway="1" width="2.00"/>
    <type id="highway.tertiary" priority="10" speed="22.22" disallow="pedestrian tram rail_urban rail rail_electric rail_fast ship" oneway="0"/>
    <type id="highway.tertiary_link" priority="5" speed="22.22" disallow="pedestrian tram rail_urban rail rail_electric rail_fast ship" oneway="0"/>
    <type id="highway.track" priority="1" speed="5.56" allow="pedestrian motorcycle moped bicycle" oneway="0"/>
    <type id="highway.trunk" priority="13" speed="27.78" disallow="pedestrian bicycle tram rail_urban rail rail_electric rail_fast ship" oneway="0"/>
    <type id="highway.trunk_link" priority="8" speed="22.22" disallow="pedestrian bicycle tram rail_urban rail rail_electric rail_fast ship" oneway="0"/>
    <type id="highway.unclassified" priority="4" speed="13.89" disallow="pedestrian tram rail_urban rail rail_electric rail_fast ship" oneway="0"/>
    <type id="highway.unsurfaced" priority="1" speed="8.33" disallow="tram rail_urban rail rail_electric rail_fast ship" oneway="0"/>
    <type id="railway.highspeed" priority="21" speed="69.44" allow="rail_fast" oneway="1"/>
    <type id="railway.light_rail" priority="19" speed="27.78" allow="rail_urban" oneway="1"/>
    <type id="railway.preserved" priority="16" speed="27.78" allow="rail" oneway="1"/>
    <type id="railway.rail" priority="20" speed="44.44" allow="rail" oneway="1"/>
    <type id="railway.subway" priority="18" speed="27.78" allow="rail_urban" oneway="1"/>
    <type id="railway.tram" priority="17" speed="13.89" allow="tram" oneway="1"/>

    <edge id=":100_0" function="internal">
        <lane id=":100_0_0" index="0" disallow="pedestrian tram rail_urban rail rail_electric rail_fast ship" speed="36.11" length="10.29" width="3.50" shape="925.70,-982.38 935.90,-981.00"/>
    </edge>
    <edge id=":100_1" function="internal">
        <lane id=":100_1_0" index="0" disallow="pedestrian tram rail_urban rail rail_electric rail_fast ship" speed="4.43" length="3.46" width="3.50" shape="925.31,-980.48 926.18,-979.90 927.48,-978.73 927.90,-978.22"/>
    </edge>
    <edge id=":101_0" function="internal">
        <lane id=":101_0_0" index="0" disallow="pedestrian tram rail_urban rail rail_electric rail_fast ship" speed="36.11" length="10.46" width="3.50" shape="965.42,-857.61 961.11,-858.44 955.13,-859.47"/>
    </edge>
    <edge id=":101_1" function="internal">
        <lane id=":101_1_0" index="0" disallow="pedestrian tram rail_urban rail rail_electric rail_fast ship" speed="9.61" length="19.08" width="3.50" shape="965.87,-859.73 965.33,-860.14 963.73,-861.79 962.42,-863.68 961.41,-865.75 960.71,-867.94 960.21,-870.77 960.06,-873.64 960.25,-877.09"/>
    </edge>
    <edge id=":101_2" function="internal">
        <lane id=":101_2_0" index="0" disallow="pedestrian tram rail_urban rail rail_electric rail_fast ship" speed="8.42" length="16.41" width="3.50" shape="963.73,-876.75 963.28,-873.81 962.66,-871.52 961.76,-869.33 960.56,-867.29 959.43,-865.92 958.13,-864.72 956.67,-863.71 955.76,-863.27"/>
    </edge>
    <edge id=":102_0" function="internal">
        <lane id=":102_0_0" index="0" disallow="pedestrian tram rail_urban rail rail_electric rail_fast ship" speed="3.50" length="1.77" width="3.50" shape="896.54,-865.71 895.70,-865.21 895.09,-864.70"/>
    </edge>
    <edge id=":102_1" function="internal">
        <lane id=":102_1_0" index="0" disallow="pedestrian tram rail_urban rail rail_electric rail_fast ship" speed="36.11" length="9.48" width="3.50" shape="897.13,-869.27 887.79,-870.89"/>
    </edge>
    <edge id=":103_0" function="internal">
        <lane id=":103_0_0" index="0" disallow="pedestrian tram rail_urban rail rail_electric rail_fast ship" speed="36.11" length="9.31" width="3.50" shape="851.16,-877.52 860.30,-875.77"/>
    </edge>
    <edge id=":103_1" function="internal">
        <lane id=":103_1_0" index="0" disallow="pedestrian tram rail_urban rail rail_electric rail_fast ship" speed="9.15" length="18.59" width="3.50" shape="851.62,-880.03 850.31,-881.18 848.84,-882.97 847.70,-884.99 846.89,-887.17 846.42,-889.45 846.24,-892.35 846.42,-895.25 846.66,-896.98"/>
    </edge>
    <edge id=":103_2" function="internal">
        <lane id=":103_2_0" index="0" disallow="pedestrian tram rail_urban rail rail_electric rail_fast ship" speed="15.40" length="16.37" width="3.50" shape="850.11,-896.38 849.96,-895.59 849.78,-894.79 849.58,-893.98 849.34,-893.15 849.07,-892.32 848.78,-891.49 848.46,-890.66 848.11,-889.84 847.74,-889.02 847.35,-888.21 846.93,-887.42 846.49,-886.64 846.03,-885.88 845.55,-885.15 845.05,-884.45 844.54,-883.78 844.00,-883.14 843.45,-882.54 842.88,-881.97"/>
    </edge>
    <edge id=":105_0" function="internal">
        <lane id=":105_0_0" index="0" disallow="pedestrian tram rail_urban rail rail_electric rail_fast ship" speed="7.97" length="16.95" width="3.50" shape="893.23,-1009.19 891.79,-1006.34 890.69,-1003.38 890.14,-1000.91 890.00,-999.02 890.16,-997.13 890.67,-995.31 891.54,-993.62 891.84,-993.24"/>
    </edge>
    <edge id=":105_1" function="internal">
        <lane id=":105_1_0" index="0" disallow="pedestrian tram rail_urban rail rail_electric rail_fast ship" speed="36.11" length="39.23" width="3.50" shape="893.23,-1009.19 890.39,-1003.75 887.41,-997.23 880.75,-980.95 877.38,-973.33"/>
    </edge>
    <edge id=":105_2" function="internal">
        <lane id=":105_2_0" index="0" disallow="pedestrian tram rail_urban rail rail_electric rail_fast ship" speed="10.54" length="20.36" width="3.50" shape="875.69,-997.25 877.11,-997.73 879.58,-998.99 881.86,-1000.57 883.93,-1002.41 886.16,-1004.88 888.44,-1008.03 890.16,-1010.88"/>
    </edge>
    <edge id=":105_3" function="internal">
        <lane id=":105_3_0" index="0" disallow="pedestrian tram rail_urban rail rail_electric rail_fast ship" speed="36.11" length="16.72" width="3.50" shape="874.93,-994.38 883.67,-992.08 891.10,-990.12"/>
    </edge>
    <edge id=":105_4" function="internal">
        <lane id=":105_4_0" index="0" disallow="pedestrian tram rail_urban rail rail_electric rail_fast ship" speed="9.19" length="21.63" width="3.50" shape="874.51,-992.76 875.61,-991.93 876.92,-990.63 878.04,-989.17 878.90,-987.54 879.49,-985.80 879.80,-983.98 879.84,-982.14 879.55,-979.70 878.95,-977.32 877.88,-974.44 877.38,-973.33"/>
    </edge>
    <edge id=":105_5" function="internal">
        <lane id=":105_5_0" index="0" disallow="pedestrian tram rail_urban rail rail_electric rail_fast ship" speed="36.11" length="39.45" width="3.50" shape="874.22,-974.82 877.57,-982.41 884.26,-998.75 887.28,-1005.36 890.16,-1010.88"/>
    </edge>
    <edge id=":105_6" function="internal">
        <lane id=":105_6_0" index="0" disallow="pedestrian tram rail_urban rail rail_electric rail_fast ship" speed="10.70" length="21.96" width="3.50" shape="874.22,-974.82 875.80,-977.78 877.38,-980.11 879.20,-982.24 881.29,-984.11 883.62,-985.67 885.64,-986.66 888.30,-987.55 890.59,-987.97"/>
    </edge>
    <edge id=":106_0" function="internal">
        <lane id=":106_0_0" index="0" disallow="pedestrian tram rail_urban rail rail_electric rail_fast ship" speed="36.11" length="42.59" width="3.50" shape="888.15,-845.02 884.86,-832.77 880.25,-818.82 875.62,-804.33"/>
    </edge>
    <edge id=":106_1" function="internal">
        <lane id=":106_1_0" index="0" disallow="pedestrian tram rail_urban rail rail_electric rail_fast ship" speed="10.68" length="21.45" width="3.50" shape="888.15,-845.02 887.76,-843.44 887.35,-841.95 886.90,-840.54 886.42,-839.21 885.91,-837.98 885.37,-836.82 884.81,-835.75 884.21,-834.77 883.59,-833.88 882.93,-833.06 882.24,-832.34 881.53,-831.70 880.79,-831.14 880.01,-830.67 879.21,-830.28 878.38,-829.98 877.51,-829.77 876.62,-829.64 875.70,-829.60"/>
    </edge>
    <edge id=":108_0" function="internal">
        <lane id=":108_0_0" index="0" disallow="pedestrian tram rail_urban rail rail_electric rail_fast ship" speed="36.11" length="13.43" width="3.50" shape="990.93,-851.37 981.28,-854.14 978.00,-854.98"/>
    </edge>
    <edge id=":108_1" function="internal">
        <lane id=":108_1_0" index="0" disallow="pedestrian tram rail_urban rail rail_electric rail_fast ship" speed="9.31" length="26.42" width="3.50" shape="1004.74,-847.41 1001.45,-848.55 998.95,-849.76 997.22,-850.93 996.20,-851.87 995.33,-852.96 994.70,-854.19 994.35,-855.54 994.31,-856.93 994.53,-858.30 995.22,-860.26 996.22,-862.10 997.83,-864.36 999.65,-866.47"/>
    </edge>
    <edge id=":92_0" function="internal">
        <lane id=":92_0_0" index="0" disallow="pedestrian tram rail_urban rail rail_electric rail_fast ship" speed="8.99" length="16.83" width="3.50" shape="944.69,-946.14 940.63,-946.59 937.73,-946.63 934.84,-946.34 932.58,-945.81 930.43,-944.96 928.93,-944.08 928.49,-943.72"/>
    </edge>
    <edge id=":92_1" function="internal">
        <lane id=":92_1_0" index="0" disallow="pedestrian tram rail_urban rail rail_electric rail_fast ship" speed="8.10" length="14.87" width="3.50" shape="932.20,-956.03 932.67,-955.38 933.91,-954.13 935.80,-952.74 937.88,-951.65 940.63,-950.63 944.05,-949.80 945.19,-949.60"/>
    </edge>
    <edge id=":92_2" function="internal">
        <lane id=":92_2_0" index="0" disallow="pedestrian tram rail_urban rail rail_electric rail_fast ship" speed="36.11" length="12.62" width="3.50" shape="928.27,-956.73 927.59,-953.18 925.65,-944.39"/>
    </edge>
    <edge id=":93_0" function="internal">
        <lane id=":93_0_0" index="0" disallow="pedestrian tram rail_urban rail rail_electric rail_fast ship" speed="36.11" length="38.08" width="3.50" shape="937.99,-913.57 929.65,-915.11 921.40,-916.98 913.23,-919.17 905.16,-921.68 901.16,-923.05"/>
    </edge>
    <edge id=":93_1" function="internal">
        <lane id=":93_1_0" index="0" disallow="pedestrian tram rail_urban rail rail_electric rail_fast ship" speed="8.54" length="17.09" width="3.50" shape="924.32,-925.24 924.54,-924.76 925.52,-923.28 926.71,-921.98 928.08,-920.85 930.10,-919.62 932.81,-918.45 935.64,-917.61 938.56,-917.03"/>
    </edge>
    <edge id=":93_2" function="internal">
        <lane id=":93_2_0" index="0" disallow="pedestrian tram rail_urban rail rail_electric rail_fast ship" speed="9.13" length="20.17" width="3.50" shape="919.57,-926.37 918.93,-925.53 917.64,-924.29 916.18,-923.24 914.58,-922.43 912.88,-921.87 911.12,-921.55 908.73,-921.46 906.35,-921.70 903.43,-922.33 901.16,-923.05"/>
    </edge>
    <edge id=":93_3" function="internal">
        <lane id=":93_3_0" index="0" disallow="pedestrian tram rail_urban rail rail_electric rail_fast ship" speed="36.11" length="37.49" width="3.50" shape="902.30,-926.35 906.25,-925.00 914.20,-922.54 922.24,-920.38 930.36,-918.54 938.56,-917.03"/>
    </edge>
    <edge id=":94_0" function="internal">
        <lane id=":94_0_0" index="0" disallow="pedestrian tram rail_urban rail rail_electric rail_fast ship" speed="9.76" length="26.69" width="3.50" shape="1008.45,-934.96 1005.95,-935.28 1002.18,-935.52 999.74,-935.45 997.33,-935.14 996.22,-934.88 995.13,-934.52 994.12,-934.08 993.19,-933.53 992.37,-932.88 991.68,-932.12 991.11,-931.27 990.66,-930.32 990.34,-929.29 990.14,-928.20 990.04,-927.06 990.04,-925.92 990.28,-923.50"/>
    </edge>
    <edge id=":94_1" function="internal">
        <lane id=":94_1_0" index="0" disallow="pedestrian tram rail_urban rail rail_electric rail_fast ship" speed="36.11" length="46.71" width="3.50" shape="1008.45,-934.96 999.17,-936.57 980.86,-940.44 970.72,-942.42 962.57,-943.65"/>
    </edge>
    <edge id=":94_2" function="internal">
        <lane id=":94_2_0" index="0" disallow="pedestrian tram rail_urban rail rail_electric rail_fast ship" speed="14.29" length="37.71" width="3.50" shape="1008.45,-934.96 1007.27,-935.15 1003.81,-935.85 1000.38,-936.81 997.01,-938.08 993.78,-939.70 991.71,-941.03 989.78,-942.56 988.02,-944.29 986.45,-946.22 985.12,-948.32 984.04,-950.55 983.22,-952.88 982.63,-955.26 982.27,-957.68"/>
    </edge>
    <edge id=":94_3" function="internal">
        <lane id=":94_3_0" index="0" disallow="pedestrian tram rail_urban rail rail_electric rail_fast ship" speed="13.33" length="33.13" width="3.50" shape="985.75,-958.10 986.07,-955.94 986.58,-953.86 987.31,-951.86 988.25,-949.94 989.41,-948.15 990.78,-946.51 992.32,-945.04 994.01,-943.73 995.82,-942.60 998.69,-941.18 1001.69,-940.07 1004.78,-939.22 1007.92,-938.59 1008.97,-938.42"/>
    </edge>
    <edge id=":94_4" function="internal">
        <lane id=":94_4_0" index="0" disallow="pedestrian tram rail_urban rail rail_electric rail_fast ship" speed="36.11" length="34.90" width="3.50" shape="985.75,-958.10 987.68,-941.76 989.97,-925.53 990.28,-923.50"/>
    </edge>
    <edge id=":94_5" function="internal">
        <lane id=":94_5_0" index="0" disallow="pedestrian tram rail_urban rail rail_electric rail_fast ship" speed="11.05" length="32.90" width="3.50" shape="985.75,-958.10 985.87,-955.19 985.77,-953.77 985.54,-952.36 985.16,-950.99 984.60,-949.67 983.87,-948.45 982.97,-947.34 981.91,-946.38 980.74,-945.57 979.48,-944.90 978.15,-944.37 976.78,-943.96 973.98,-943.42 971.13,-943.19 966.85,-943.25 962.57,-943.65"/>
    </edge>
    <edge id=":94_6" function="internal">
        <lane id=":94_6_0" index="0" disallow="pedestrian tram rail_urban rail rail_electric rail_fast ship" speed="9.90" length="26.36" width="3.50" shape="963.02,-947.12 966.75,-946.76 970.45,-946.69 972.85,-946.86 975.22,-947.26 976.30,-947.56 977.36,-947.94 978.35,-948.41 979.26,-948.98 980.06,-949.64 980.74,-950.40 981.31,-951.24 981.75,-952.17 982.06,-953.18 982.26,-954.25 982.36,-955.33 982.27,-957.68"/>
    </edge>
    <edge id=":94_7" function="internal">
        <lane id=":94_7_0" index="0" disallow="pedestrian tram rail_urban rail rail_electric rail_fast ship" speed="36.11" length="46.78" width="3.50" shape="963.02,-947.12 971.25,-945.88 981.45,-943.89 999.75,-940.02 1008.97,-938.42"/>
    </edge>
    <edge id=":94_8" function="internal">
        <lane id=":94_8_0" index="0" disallow="pedestrian tram rail_urban rail rail_electric rail_fast ship" speed="14.72" length="39.15" width="3.50" shape="963.02,-947.12 964.19,-946.96 967.59,-946.34 970.98,-945.45 974.29,-944.25 977.47,-942.71 979.51,-941.44 981.43,-940.00 983.20,-938.37 984.81,-936.57 986.22,-934.62 987.43,-932.54 988.43,-930.34 989.55,-926.97 990.28,-923.50"/>
    </edge>
    <edge id=":94_9" function="internal">
        <lane id=":94_9_0" index="0" disallow="pedestrian tram rail_urban rail rail_electric rail_fast ship" speed="13.83" length="34.65" width="3.50" shape="986.83,-922.93 986.18,-926.05 985.18,-929.03 984.29,-930.93 983.23,-932.74 981.99,-934.43 980.59,-935.99 979.03,-937.39 977.35,-938.64 975.56,-939.74 972.73,-941.10 969.76,-942.15 966.72,-942.95 963.62,-943.51 962.57,-943.65"/>
    </edge>
    <edge id=":94_10" function="internal">
        <lane id=":94_10_0" index="0" disallow="pedestrian tram rail_urban rail rail_electric rail_fast ship" speed="36.11" length="35.05" width="3.50" shape="986.83,-922.93 986.51,-925.01 984.20,-941.32 982.27,-957.68"/>
    </edge>
    <edge id=":94_11" function="internal">
        <lane id=":94_11_0" index="0" disallow="pedestrian tram rail_urban rail rail_electric rail_fast ship" speed="10.90" length="33.52" width="3.50" shape="986.83,-922.93 986.53,-925.86 986.51,-927.32 986.62,-928.77 986.85,-930.21 987.24,-931.61 987.81,-932.95 988.57,-934.19 989.51,-935.30 990.61,-936.26 991.83,-937.04 993.15,-937.67 994.52,-938.16 995.93,-938.52 998.81,-938.93 1001.72,-939.04 1006.08,-938.79 1008.97,-938.42"/>
    </edge>
    <edge id=":95_0" function="internal">
        <lane id=":95_0_0" index="0" disallow="pedestrian tram rail_urban rail rail_electric rail_fast ship" speed="14.36" length="26.12" width="3.50" shape="991.03,-902.53 991.52,-901.30 990.94,-901.85 990.23,-902.38 989.44,-902.87 987.64,-903.76 984.74,-904.86 980.69,-906.05 975.50,-907.26 968.10,-908.63"/>
    </edge>
    <edge id=":95_1" function="internal">
        <lane id=":95_1_0" index="0" disallow="pedestrian tram rail_urban rail rail_electric rail_fast ship" speed="36.11" length="20.67" width="3.50" shape="991.03,-902.53 991.02,-902.90 989.83,-907.08 988.47,-913.33 986.86,-922.75"/>
    </edge>
    <edge id=":95_2" function="internal">
        <lane id=":95_2_0" index="0" disallow="pedestrian tram rail_urban rail rail_electric rail_fast ship" speed="36.11" length="19.73" width="3.48" shape="990.31,-923.30 991.88,-914.13 993.18,-908.10 994.29,-904.14 994.20,-904.02"/>
    </edge>
    <edge id=":95_3" function="internal">
        <lane id=":95_3_0" index="0" disallow="pedestrian tram rail_urban rail rail_electric rail_fast ship" speed="10.81" length="33.10" width="3.50" shape="990.31,-923.30 990.60,-920.40 990.61,-918.96 990.49,-917.53 990.24,-916.11 989.82,-914.74 989.22,-913.44 988.42,-912.24 987.45,-911.19 986.32,-910.30 985.08,-909.57 983.76,-909.01 982.39,-908.58 980.98,-908.27 978.13,-907.94 975.26,-907.90 970.96,-908.22 968.10,-908.63"/>
    </edge>
    <edge id=":95_4" function="internal">
        <lane id=":95_4_0" index="0" disallow="pedestrian tram rail_urban rail rail_electric rail_fast ship" speed="9.66" length="26.24" width="3.50" shape="968.66,-912.08 971.13,-911.73 974.85,-911.43 977.26,-911.44 979.65,-911.68 980.76,-911.90 981.84,-912.21 982.87,-912.61 983.81,-913.10 984.64,-913.70 985.36,-914.40 985.95,-915.20 986.41,-916.10 986.75,-917.08 986.97,-918.13 987.08,-919.24 987.09,-920.35 986.86,-922.75"/>
    </edge>
    <edge id=":95_5" function="internal">
        <lane id=":95_5_0" index="0" disallow="pedestrian tram rail_urban rail rail_electric rail_fast ship" speed="14.96" length="28.52" width="3.48" shape="968.66,-912.08 976.60,-910.60 982.20,-909.24 986.60,-907.85 989.79,-906.53 991.82,-905.43 992.77,-904.79 993.65,-904.05 994.43,-903.20 994.20,-904.02"/>
    </edge>
    <edge id=":96_0" function="internal">
        <lane id=":96_0_0" index="0" disallow="pedestrian tram rail_urban rail rail_electric rail_fast ship" speed="36.11" length="38.63" width="3.50" shape="982.25,-957.89 979.98,-977.10 977.71,-996.25"/>
    </edge>
    <edge id=":96_1" function="internal">
        <lane id=":96_1_0" index="0" disallow="pedestrian tram rail_urban rail rail_electric rail_fast ship" speed="11.05" length="34.25" width="3.50" shape="982.25,-957.89 982.08,-960.78 982.23,-963.62 982.47,-965.03 982.83,-966.41 983.34,-967.74 984.02,-969.00 984.85,-970.15 985.85,-971.17 986.98,-972.03 988.22,-972.74 989.53,-973.30 990.90,-973.72 992.29,-974.02 995.13,-974.31 997.98,-974.31 1002.24,-973.89 1005.04,-973.41"/>
    </edge>
    <edge id=":96_2" function="internal">
        <lane id=":96_2_0" index="0" disallow="pedestrian tram rail_urban rail rail_electric rail_fast ship" speed="9.92" length="27.47" width="3.50" shape="1004.39,-969.97 1001.95,-970.39 998.27,-970.77 995.88,-970.79 993.50,-970.57 992.40,-970.35 991.32,-970.05 990.31,-969.65 989.37,-969.15 988.52,-968.54 987.78,-967.83 987.15,-967.03 986.64,-966.13 986.23,-965.14 985.93,-964.09 985.73,-963.02 985.59,-960.67 985.73,-958.28"/>
    </edge>
    <edge id=":96_3" function="internal">
        <lane id=":96_3_0" index="0" disallow="pedestrian tram rail_urban rail rail_electric rail_fast ship" speed="15.01" length="40.48" width="3.50" shape="1004.39,-969.97 1002.10,-970.47 998.72,-971.41 995.41,-972.62 992.20,-974.15 989.17,-976.02 987.25,-977.50 985.48,-979.13 983.86,-980.93 982.42,-982.87 981.17,-984.93 980.11,-987.09 979.24,-989.34 978.30,-992.77 977.71,-996.25"/>
    </edge>
    <edge id=":96_4" function="internal">
        <lane id=":96_4_0" index="0" disallow="pedestrian tram rail_urban rail rail_electric rail_fast ship" speed="14.19" length="36.04" width="3.50" shape="981.18,-996.68 981.71,-993.55 982.56,-990.48 983.33,-988.51 984.27,-986.60 985.38,-984.80 986.65,-983.10 988.08,-981.53 989.65,-980.10 991.33,-978.82 994.05,-977.15 996.92,-975.79 999.91,-974.71 1002.98,-973.86 1005.04,-973.41"/>
    </edge>
    <edge id=":96_5" function="internal">
        <lane id=":96_5_0" index="0" disallow="pedestrian tram rail_urban rail rail_electric rail_fast ship" speed="36.11" length="38.67" width="3.50" shape="981.18,-996.68 983.45,-977.50 985.73,-958.28"/>
    </edge>
    <edge id=":96_6" function="internal">
        <lane id=":96_6_0" index="0" disallow="pedestrian tram rail_urban rail rail_electric rail_fast ship" speed="7.96" length="16.17" width="3.50" shape="974.16,-981.09 974.58,-981.44 975.75,-982.90 976.64,-984.55 977.28,-986.32 977.78,-988.78 977.98,-991.90 977.77,-995.65 977.71,-996.25"/>
    </edge>
    <edge id=":96_7" function="internal">
        <lane id=":96_7_0" index="0" disallow="pedestrian tram rail_urban rail rail_electric rail_fast ship" speed="36.11" length="31.51" width="3.50" shape="973.73,-976.91 998.01,-974.32 1005.04,-973.41"/>
    </edge>
    <edge id=":96_8" function="internal">
        <lane id=":96_8_0" index="0" disallow="pedestrian tram rail_urban rail rail_electric rail_fast ship" speed="10.73" length="21.97" width="3.50" shape="973.56,-975.23 975.13,-974.50 977.53,-973.03 979.71,-971.26 981.25,-969.63 982.57,-967.81 983.67,-965.85 984.71,-963.24 985.40,-960.52 985.73,-958.28"/>
    </edge>
    <edge id=":97_0" function="internal">
        <lane id=":97_0_0" index="0" disallow="pedestrian tram rail_urban rail rail_electric rail_fast ship" speed="10.99" length="30.08" width="3.50" shape="878.37,-931.02 877.28,-931.38 873.86,-932.32 871.60,-932.74 869.33,-932.97 867.10,-932.96 864.90,-932.65 863.89,-932.39 862.88,-932.03 861.93,-931.58 861.02,-931.05 860.17,-930.43 859.38,-929.73 858.65,-928.95 857.98,-928.11 857.39,-927.23 856.33,-925.24 855.51,-923.13 854.88,-920.91"/>
    </edge>
    <edge id=":97_1" function="internal">
        <lane id=":97_1_0" index="0" disallow="pedestrian tram rail_urban rail rail_electric rail_fast ship" speed="11.89" length="35.11" width="3.50" shape="878.37,-931.02 874.77,-932.47 872.42,-933.70 870.18,-935.18 868.15,-936.93 867.19,-937.97 866.33,-939.07 865.58,-940.26 864.94,-941.52 864.44,-942.84 864.07,-944.20 863.83,-945.58 863.72,-946.97 863.72,-948.35 863.83,-949.73 864.30,-952.35 865.05,-954.91 866.51,-958.49"/>
    </edge>
    <edge id=":97_2" function="internal">
        <lane id=":97_2_0" index="0" disallow="pedestrian tram rail_urban rail rail_electric rail_fast ship" speed="10.87" length="29.14" width="3.50" shape="869.69,-957.02 868.42,-953.91 867.79,-951.76 867.39,-949.55 867.31,-948.43 867.30,-947.31 867.40,-946.19 867.59,-945.09 867.89,-944.01 868.29,-942.96 868.79,-941.96 869.40,-941.02 870.08,-940.13 870.84,-939.31 872.54,-937.85 874.42,-936.62 876.40,-935.58 879.52,-934.32"/>
    </edge>
    <edge id=":97_3" function="internal">
        <lane id=":97_3_0" index="0" disallow="pedestrian tram rail_urban rail rail_electric rail_fast ship" speed="36.11" length="39.07" width="3.50" shape="869.69,-957.02 863.27,-943.00 859.25,-933.54 856.69,-926.81 855.14,-921.92 854.88,-920.91"/>
    </edge>
    <edge id=":97_4" function="internal">
        <lane id=":97_4_0" index="0" disallow="pedestrian tram rail_urban rail rail_electric rail_fast ship" speed="9.79" length="21.12" width="3.50" shape="851.53,-945.04 852.46,-945.11 854.15,-945.50 856.30,-946.36 858.27,-947.55 860.05,-949.02 862.01,-951.14 863.72,-953.47 865.49,-956.45 866.51,-958.49"/>
    </edge>
    <edge id=":97_5" function="internal">
        <lane id=":97_5_0" index="0" disallow="pedestrian tram rail_urban rail rail_electric rail_fast ship" speed="36.11" length="30.09" width="3.50" shape="850.88,-943.53 856.71,-941.49 876.63,-935.30 879.52,-934.32"/>
    </edge>
    <edge id=":97_6" function="internal">
        <lane id=":97_6_0" index="0" disallow="pedestrian tram rail_urban rail rail_electric rail_fast ship" speed="10.78" length="22.70" width="3.50" shape="850.21,-941.97 850.40,-941.81 851.92,-940.16 853.21,-938.33 854.26,-936.34 855.04,-934.24 855.54,-932.05 855.83,-929.26 855.78,-926.46 855.35,-923.12 854.88,-920.91"/>
    </edge>
    <edge id=":97_7" function="internal">
        <lane id=":97_7_0" index="0" disallow="pedestrian tram rail_urban rail rail_electric rail_fast ship" speed="36.11" length="39.82" width="3.50" shape="851.46,-921.67 851.76,-922.82 853.35,-927.86 855.96,-934.72 860.03,-944.33 866.51,-958.49"/>
    </edge>
    <edge id=":97_8" function="internal">
        <lane id=":97_8_0" index="0" disallow="pedestrian tram rail_urban rail rail_electric rail_fast ship" speed="12.00" length="36.11" width="3.50" shape="851.46,-921.67 852.21,-924.32 853.18,-926.81 854.41,-929.17 855.15,-930.29 855.96,-931.34 856.87,-932.32 857.86,-933.22 858.92,-934.02 860.07,-934.71 861.27,-935.29 862.52,-935.75 863.81,-936.10 866.44,-936.50 869.11,-936.53 871.77,-936.28 874.39,-935.80 878.26,-934.74 879.52,-934.32"/>
    </edge>
    <edge id=":98_0" function="internal">
        <lane id=":98_0_0" index="0" disallow="pedestrian tram rail_urban rail rail_electric rail_fast ship" speed="36.11" length="21.58" width="3.50" shape="999.56,-882.49 997.90,-886.52 991.12,-902.35"/>
    </edge>
    <edge id=":98_1" function="internal">
        <lane id=":98_1_0" index="0" disallow="pedestrian tram rail_urban rail rail_electric rail_fast ship" speed="13.59" length="22.00" width="3.50" shape="999.55,-882.51 999.48,-882.80 999.47,-883.18 999.53,-883.63 999.65,-884.17 999.83,-884.79 1000.08,-885.49 1000.39,-886.28 1000.76,-887.14 1001.19,-888.09 1001.69,-889.13 1002.26,-890.24 1002.88,-891.44 1003.57,-892.72 1004.32,-894.09 1005.14,-895.53 1006.02,-897.06 1006.96,-898.67 1007.96,-900.37 1009.03,-902.14"/>
    </edge>
    <edge id=":98_2" function="internal">