<routes>
	<vehicle depart="0.1" departLane="0" departPos="9.506280875719485" departSpeed="1.5102594" id="340" type="bicycle">
		<route edges="9137 10489 9272"/>
	</vehicle>
	<vehicle depart="0.1" departLane="0" departPos="2.5" departSpeed="3.3380527" id="32" type="passenger">
		<route edges=":96_1 9272"/>
	</vehicle>
	<vehicle depart="0.1" departLane="0" departPos="18.451907692596727" departSpeed="0.0" id="312" type="passenger">
		<route edges="9273 10492"/>
	</vehicle>
	<vehicle depart="0.1" departLane="0" departPos="10.953822122103539" departSpeed="0.0" id="313" type="passenger">
		<route edges="9273 10492"/>
	</vehicle>
	<vehicle depart="0.1" departLane="0" departPos="33.586688244763714" departSpeed="0.022215874" id="317" type="passenger">
		<route edges=":94_4 10485 9687"/>
	</vehicle>
	<vehicle depart="0.1" departLane="0" departPos="14.73655681189194" departSpeed="2.5713164" id="318" type="passenger">
		<route edges="9558 9272"/>
	</vehicle>
	<vehicle depart="0.1" departLane="0" departPos="12.481659615415289" departSpeed="0.69858182" id="324" type="passenger">
		<route edges=":94_0 10485"/>
	</vehicle>
	<vehicle depart="0.1" departLane="0" departPos="13.825117703263324" departSpeed="0.55021771" id="334" type="passenger">
		<route edges=":96_1 9272"/>
	</vehicle>
	<vehicle depart="0.1" departLane="0" departPos="5.360131727589309" departSpeed="0.6083531" id="377" type="passenger">
		<route edges="9137 8965"/>
	</vehicle>
	<vehicle depart="0.1" departLane="0" departPos="38.804642211215636" departSpeed="0.0" id="319" type="truck">
		<route edges=":96_5 10488"/>
	</vehicle>
</routes>
