<routes>
	<vehicle depart="0.1" departLane="0" departPos="101.50747362202475" departSpeed="0.0" id="315" type="passenger">
		<route edges="31872 31185"/>
	</vehicle>
	<vehicle depart="0.1" departLane="0" departPos="9.659906000901083" departSpeed="1.3011891" id="317" type="passenger">
		<route edges=":65_1 31105"/>
	</vehicle>
	<vehicle depart="0.1" departLane="0" departPos="69.32899508128725" departSpeed="1.5444956" id="330" type="passenger">
		<route edges="31106 31184"/>
	</vehicle>
	<vehicle depart="0.1" departLane="0" departPos="9.79058600131178" departSpeed="16.935875" id="366" type="passenger">
		<route edges="31184 31871"/>
	</vehicle>
	<vehicle depart="0.1" departLane="0" departPos="28.192685867287608" departSpeed="15.061277" id="373" type="passenger">
		<route edges=":65_5 31184 31181"/>
	</vehicle>
</routes>
