<routes>
	<vehicle depart="0.1" departLane="0" departPos="27.869132930510514" departSpeed="0.01670876" id="311" type="bicycle">
		<route edges=":30_1 51849"/>
	</vehicle>
	<vehicle depart="0.1" departLane="0" departPos="52.62696749158514" departSpeed="0.50692143" id="313" type="bicycle">
		<route edges="52085 51850"/>
	</vehicle>
	<vehicle depart="0.1" departLane="0" departPos="57.452862112673635" departSpeed="0.0" id="32" type="passenger">
		<route edges="52046 51849"/>
	</vehicle>
	<vehicle depart="0.1" departLane="0" departPos="12.371607349647189" departSpeed="0.78901442" id="315" type="passenger">
		<route edges="51849 52086"/>
	</vehicle>
	<vehicle depart="0.1" departLane="0" departPos="64.76522821578402" departSpeed="0.0" id="320" type="passenger">
		<route edges="52046 51849"/>
	</vehicle>
	<vehicle depart="0.1" departLane="0" departPos="30.387091463497814" departSpeed="0.70894974" id="325" type="passenger">
		<route edges=":30_1 51849"/>
	</vehicle>
	<vehicle depart="0.1" departLane="0" departPos="45.719866848785784" departSpeed="4.9414179" id="338" type="passenger">
		<route edges="51852 51849"/>
	</vehicle>
	<vehicle depart="0.1" departLane="0" departPos="13.28591966479975" departSpeed="2.5670976" id="342" type="passenger">
		<route edges=":30_5 52047"/>
	</vehicle>
	<vehicle depart="0.1" departLane="0" departPos="10.744970295430816" departSpeed="1.351732" id="334" type="motorcycle">
		<route edges=":30_4 51849"/>
	</vehicle>
	<vehicle depart="0.1" departLane="0" departPos="51.733047932404595" departSpeed="3.6503871" id="344" type="motorcycle">
		<route edges="51852 51849"/>
	</vehicle>
</routes>
