<routes>
	<vehicle depart="0.1" departLane="0" departPos="27.51823397398663" departSpeed="0.22183057" id="38" type="passenger">
		<route edges=":75_0 126221"/>
	</vehicle>
	<vehicle depart="0.1" departLane="0" departPos="4.756447223332518" departSpeed="0.95258095" id="310" type="passenger">
		<route edges=":75_1 125395"/>
	</vehicle>
	<vehicle depart="0.1" departLane="0" departPos="35.05626057142129" departSpeed="0.27514634" id="315" type="passenger">
		<route edges="126219 126221"/>
	</vehicle>
	<vehicle depart="0.1" departLane="0" departPos="16.037761713922027" departSpeed="4.4618545" id="322" type="passenger">
		<route edges=":75_3 125395 126146"/>
	</vehicle>
	<vehicle depart="0.1" departLane="0" departPos="14.789171373892243" departSpeed="1.0780426" id="324" type="passenger">
		<route edges="126221 126223 125121"/>
	</vehicle>
	<vehicle depart="0.1" departLane="0" departPos="58.52611516153426" departSpeed="5.0405752" id="335" type="passenger">
		<route edges="125393 125395"/>
	</vehicle>
	<vehicle depart="0.1" departLane="0" departPos="42.79700145693929" departSpeed="4.2691489" id="339" type="passenger">
		<route edges="125393 125395"/>
	</vehicle>
	<vehicle depart="0.1" departLane="0" departPos="20.991928307324066" departSpeed="0.0" id="35" type="motorcycle">
		<route edges=":75_0 126221"/>
	</vehicle>
	<vehicle depart="0.1" departLane="0" departPos="33.81695027967356" departSpeed="4.8368409" id="343" type="motorcycle">
		<route edges="125393 125395"/>
	</vehicle>
	<vehicle depart="0.1" departLane="0" departPos="29.977691104005228" departSpeed="8.2898825" id="321" type="truck">
		<route edges=":75_3 125395 126146"/>
	</vehicle>
</routes>
