<?xml version="1.0" encoding="UTF-8"?>

<!-- generated on Fri Dec 18 16:19:46 2020 by Eclipse SUMO netconvert Version 1.8.0
<configuration xmlns:xsi="http://www.w3.org/2001/XMLSchema-instance" xsi:noNamespaceSchemaLocation="http://sumo.dlr.de/xsd/netconvertConfiguration.xsd">

    <input>
        <node-files value="./converted_scenarios/SUMO/CHN_Sha-2_2_I-1-1/nodes.net.xml"/>
        <edge-files value="./converted_scenarios/SUMO/CHN_Sha-2_2_I-1-1/edges.net.xml"/>
        <connection-files value="./converted_scenarios/SUMO/CHN_Sha-2_2_I-1-1/_connections.net.xml"/>
        <tllogic-files value="./converted_scenarios/SUMO/CHN_Sha-2_2_I-1-1/_tll.net.xml"/>
    </input>

    <output>
        <output-file value="./converted_scenarios/SUMO/CHN_Sha-2_2_I-1-1/CHN_Sha-2_2_I-1-1.net.xml"/>
    </output>

    <processing>
        <plain.extend-edge-shape value="true"/>
        <geometry.remove.keep-edges.explicit value="true"/>
        <geometry.avoid-overlap value="true"/>
        <offset.disable-normalization value="true"/>
    </processing>

    <junctions>
        <no-turnarounds value="true"/>
        <junctions.internal-link-detail value="20"/>
    </junctions>

    <report>
        <aggregate-warnings value="5"/>
    </report>

    <random_number>
        <seed value="1234"/>
    </random_number>

</configuration>
-->

<net version="1.6" junctionCornerDetail="5" junctionLinkDetail="20" limitTurnSpeed="5.50" xmlns:xsi="http://www.w3.org/2001/XMLSchema-instance" xsi:noNamespaceSchemaLocation="http://sumo.dlr.de/xsd/net_file.xsd">

    <location netOffset="0.00,0.00" convBoundary="-343.68,-367.93,146.68,385.63" origBoundary="-343.68,-367.94,148.81,386.07" projParameter="!"/>

    <edge id=":1_0" function="internal">
        <lane id=":1_0_0" index="0" disallow="bus truck rail_fast" speed="36.11" length="3.60" width="2.50" shape="145.09,220.36 145.00,220.11 144.92,219.88 144.84,219.67 144.77,219.49 144.71,219.32 144.65,219.16 144.59,219.02 144.53,218.88 144.47,218.75 144.40,218.62 144.34,218.50 144.27,218.36 144.20,218.22 144.13,218.07 144.05,217.91 143.96,217.73 143.86,217.54 143.75,217.32 143.63,217.08"/>
    </edge>
    <edge id=":1_1" function="internal">
        <lane id=":1_1_0" index="0" disallow="bus truck rail_fast" speed="10.73" length="3.66" width="2.50" shape="144.97,220.41 144.96,220.15 144.94,219.90 144.92,219.69 144.89,219.49 144.85,219.32 144.80,219.16 144.75,219.01 144.69,218.87 144.62,218.74 144.55,218.61 144.47,218.49 144.38,218.35 144.29,218.21 144.19,218.07 144.09,217.91 143.98,217.73 143.87,217.54 143.75,217.32 143.63,217.08"/>
    </edge>
    <edge id=":10_0" function="internal">
        <lane id=":10_0_0" index="0" disallow="bus truck rail_fast" speed="7.05" length="10.18" width="2.50" shape="-52.95,50.55 -52.67,51.27 -52.37,51.95 -52.06,52.57 -51.75,53.16 -51.42,53.69 -51.09,54.18 -50.75,54.63 -50.39,55.03 -50.03,55.38 -49.66,55.69 -49.28,55.96 -48.88,56.17 -48.48,56.35 -48.07,56.47 -47.65,56.55 -47.22,56.59 -46.79,56.57 -46.34,56.52 -45.88,56.42"/>
    </edge>
    <edge id=":10_1" function="internal">
        <lane id=":10_1_0" index="0" disallow="bus truck rail_fast" speed="36.11" length="9.52" width="2.50" shape="-52.95,50.55 -49.47,59.38"/>
        <lane id=":10_1_1" index="1" disallow="bus truck rail_fast" speed="36.11" length="9.52" width="2.50" shape="-55.29,51.45 -51.79,60.33"/>
    </edge>
    <edge id=":10_3" function="internal">
        <lane id=":10_3_0" index="0" disallow="bus truck rail_fast" speed="36.11" length="7.98" width="2.48" shape="-55.29,51.45 -55.07,52.00 -54.86,52.49 -54.65,52.94 -54.45,53.33 -54.26,53.70 -54.08,54.03 -53.90,54.34 -53.74,54.63 -53.58,54.92 -53.43,55.20 -53.29,55.49 -53.17,55.80 -53.05,56.12 -52.94,56.47 -52.84,56.85 -52.76,57.28 -52.68,57.75 -52.62,58.27 -52.57,58.86"/>
    </edge>
    <edge id=":100_0" function="internal">
        <lane id=":100_0_0" index="0" disallow="bus truck rail_fast" speed="36.11" length="0.10" width="2.50" shape="-70.45,16.41 -70.36,16.41"/>
    </edge>
    <edge id=":101_0" function="internal">
        <lane id=":101_0_0" index="0" disallow="bus truck rail_fast" speed="3.77" length="2.61" width="2.47" shape="-71.32,16.39 -71.35,16.24 -71.41,16.08 -71.47,15.93 -71.54,15.77 -71.62,15.62 -71.70,15.47 -71.78,15.32 -71.86,15.18 -71.94,15.04 -72.01,14.91 -72.06,14.79 -72.10,14.68 -72.13,14.57 -72.13,14.48 -72.11,14.40 -72.07,14.32 -72.00,14.27 -71.89,14.22 -71.76,14.19"/>
    </edge>
    <edge id=":102_0" function="internal">
        <lane id=":102_0_0" index="0" disallow="bus truck rail_fast" speed="36.11" length="1.96" width="2.47" shape="-71.56,14.16 -71.41,14.14 -71.28,14.11 -71.17,14.09 -71.06,14.07 -70.97,14.05 -70.88,14.03 -70.80,14.00 -70.72,13.98 -70.64,13.95 -70.57,13.92 -70.50,13.89 -70.42,13.86 -70.35,13.82 -70.26,13.79 -70.17,13.74 -70.07,13.70 -69.96,13.65 -69.84,13.60 -69.71,13.54"/>
    </edge>
    <edge id=":102_1" function="internal">
        <lane id=":102_1_0" index="0" disallow="bus truck rail_fast" speed="4.93" length="4.01" width="2.47" shape="-71.56,14.16 -71.38,14.14 -71.21,14.14 -71.04,14.15 -70.88,14.18 -70.71,14.23 -70.55,14.29 -70.40,14.37 -70.24,14.46 -70.09,14.57 -69.94,14.70 -69.80,14.85 -69.65,15.00 -69.51,15.18 -69.38,15.37 -69.24,15.58 -69.11,15.81 -68.99,16.05 -68.86,16.31 -68.74,16.58"/>
    </edge>
    <edge id=":103_0" function="internal">
        <lane id=":103_0_0" index="0" disallow="bus truck rail_fast" speed="36.11" length="6.06" width="2.50" shape="-145.43,-162.90 -139.84,-165.24"/>
    </edge>
    <edge id=":103_1" function="internal">
        <lane id=":103_1_0" index="0" disallow="bus truck rail_fast" speed="5.75" length="3.06" width="2.50" shape="-140.65,-162.28 -139.84,-165.24"/>
    </edge>
    <edge id=":104_0" function="internal">
        <lane id=":104_0_0" index="0" disallow="bus truck rail_fast" speed="36.11" length="0.10" width="2.50" shape="-139.66,-165.32 -139.69,-165.37"/>
    </edge>
    <edge id=":105_0" function="internal">
        <lane id=":105_0_0" index="0" disallow="bus truck rail_fast" speed="36.11" length="5.74" width="2.50" shape="-135.74,-165.02 -136.09,-164.77 -136.41,-164.55 -136.69,-164.35 -136.95,-164.16 -137.19,-164.00 -137.41,-163.85 -137.62,-163.71 -137.81,-163.58 -138.01,-163.46 -138.20,-163.34 -138.40,-163.23 -138.61,-163.11 -138.83,-163.00 -139.07,-162.88 -139.33,-162.75 -139.62,-162.61 -139.93,-162.46 -140.28,-162.30 -140.67,-162.12"/>
    </edge>
    <edge id=":105_1" function="internal">
        <lane id=":105_1_0" index="0" disallow="bus truck rail_fast" speed="36.11" length="1.20" width="2.50" shape="-139.59,-162.62 -139.67,-162.57 -139.73,-162.53 -139.80,-162.49 -139.85,-162.46 -139.91,-162.43 -139.95,-162.41 -140.00,-162.39 -140.05,-162.37 -140.09,-162.35 -140.14,-162.33 -140.18,-162.32 -140.23,-162.30 -140.28,-162.28 -140.33,-162.26 -140.39,-162.24 -140.45,-162.22 -140.52,-162.19 -140.59,-162.16 -140.67,-162.12"/>
    </edge>
    <edge id=":106_0" function="internal">
        <lane id=":106_0_0" index="0" disallow="bus truck rail_fast" speed="36.11" length="4.21" width="2.50" shape="-140.85,-162.04 -141.14,-161.91 -141.40,-161.79 -141.63,-161.68 -141.85,-161.59 -142.04,-161.50 -142.22,-161.43 -142.39,-161.36 -142.55,-161.29 -142.71,-161.23 -142.87,-161.17 -143.02,-161.11 -143.19,-161.06 -143.36,-161.00 -143.55,-160.93 -143.75,-160.86 -143.97,-160.79 -144.21,-160.71 -144.48,-160.61 -144.78,-160.51"/>
    </edge>
    <edge id=":106_1" function="internal">
        <lane id=":106_1_0" index="0" disallow="bus truck rail_fast" speed="3.89" length="2.68" width="2.50" shape="-140.85,-162.04 -141.00,-161.97 -141.15,-161.92 -141.30,-161.88 -141.43,-161.85 -141.57,-161.83 -141.70,-161.83 -141.83,-161.84 -141.95,-161.86 -142.07,-161.89 -142.19,-161.93 -142.30,-161.99 -142.41,-162.05 -142.52,-162.13 -142.62,-162.22 -142.72,-162.32 -142.81,-162.44 -142.90,-162.57 -142.99,-162.70 -143.07,-162.85"/>
    </edge>
    <edge id=":107_0" function="internal">
        <lane id=":107_0_0" index="0" disallow="bus truck rail_fast" speed="36.11" length="15.07" width="2.50" shape="87.93,109.61 87.18,109.43 86.46,109.28 85.76,109.14 85.09,109.03 84.42,108.92 83.77,108.84 83.11,108.77 82.44,108.72 81.77,108.68 81.07,108.65 80.35,108.64 79.60,108.64 78.81,108.65 77.98,108.67 77.09,108.70 76.16,108.74 75.16,108.78 74.09,108.84 72.94,108.90"/>
    </edge>
    <edge id=":107_1" function="internal">
        <lane id=":107_1_0" index="0" disallow="bus truck rail_fast" speed="36.11" length="16.87" width="2.50" shape="89.78,106.88 88.53,107.10 87.40,107.30 86.38,107.48 85.46,107.64 84.62,107.79 83.84,107.92 83.11,108.03 82.41,108.14 81.74,108.23 81.07,108.31 80.40,108.39 79.70,108.46 78.97,108.52 78.18,108.58 77.33,108.64 76.39,108.70 75.36,108.76 74.21,108.83 72.94,108.90"/>
        <lane id=":107_1_1" index="1" disallow="bus truck rail_fast" speed="36.11" length="16.87" width="2.50" shape="89.37,104.48 72.71,106.41"/>
    </edge>
    <edge id=":107_3" function="internal">
        <lane id=":107_3_0" index="0" disallow="bus truck rail_fast" speed="11.06" length="14.33" width="2.50" shape="85.64,101.40 85.30,101.86 84.93,102.30 84.51,102.72 84.06,103.11 83.57,103.48 83.05,103.83 82.48,104.16 81.88,104.47 81.24,104.76 80.56,105.02 79.84,105.26 79.08,105.48 78.29,105.68 77.45,105.85 76.58,106.01 75.67,106.14 74.72,106.25 73.74,106.34 72.71,106.41"/>
    </edge>
    <edge id=":108_0" function="internal">
        <lane id=":108_0_0" index="0" disallow="bus truck rail_fast" speed="6.85" length="10.67" width="2.50" shape="-17.49,110.64 -18.37,110.67 -19.20,110.73 -19.98,110.81 -20.71,110.92 -21.40,111.05 -22.03,111.20 -22.62,111.37 -23.15,111.57 -23.64,111.79 -24.07,112.04 -24.46,112.30 -24.80,112.59 -25.09,112.91 -25.33,113.24 -25.51,113.60 -25.66,113.99 -25.75,114.39 -25.79,114.82 -25.78,115.27"/>
    </edge>
    <edge id=":108_1" function="internal">
        <lane id=":108_1_0" index="0" disallow="bus truck rail_fast" speed="36.11" length="10.51" width="2.50" shape="-17.49,110.64 -27.95,111.05"/>
        <lane id=":108_1_1" index="1" disallow="bus truck rail_fast" speed="36.11" length="10.51" width="2.50" shape="-17.57,108.14 -28.11,108.56"/>
    </edge>
    <edge id=":109_0" function="internal">
        <lane id=":109_0_0" index="0" disallow="bus truck rail_fast" speed="36.11" length="14.61" width="2.50" shape="-30.05,101.81 -29.30,101.99 -28.59,102.15 -27.90,102.30 -27.24,102.44 -26.59,102.56 -25.96,102.67 -25.32,102.76 -24.68,102.85 -24.04,102.92 -23.37,102.99 -22.68,103.04 -21.96,103.08 -21.21,103.11 -20.41,103.13 -19.56,103.14 -18.66,103.14 -17.70,103.13 -16.66,103.11 -15.56,103.08"/>
    </edge>
    <edge id=":109_1" function="internal">
        <lane id=":109_1_0" index="0" disallow="bus truck rail_fast" speed="36.11" length="16.17" width="2.50" shape="-31.74,103.75 -15.56,103.08"/>
        <lane id=":109_1_1" index="1" disallow="bus truck rail_fast" speed="36.11" length="16.17" width="2.50" shape="-31.62,106.25 -15.48,105.58"/>
    </edge>
    <edge id=":110_0" function="internal">
        <lane id=":110_0_0" index="0" disallow="bus truck rail_fast" speed="6.93" length="11.45" width="2.50" shape="74.12,101.31 75.06,101.22 75.95,101.10 76.78,100.96 77.56,100.79 78.28,100.61 78.94,100.40 79.54,100.17 80.09,99.92 80.59,99.64 81.02,99.34 81.40,99.02 81.73,98.68 82.00,98.32 82.21,97.93 82.36,97.52 82.46,97.09 82.50,96.63 82.49,96.15 82.42,95.66"/>
    </edge>
    <edge id=":110_1" function="internal">
        <lane id=":110_1_0" index="0" disallow="bus truck rail_fast" speed="36.11" length="13.16" width="2.50" shape="74.12,101.31 75.09,101.23 75.97,101.16 76.77,101.09 77.48,101.03 78.14,100.97 78.75,100.92 79.31,100.87 79.85,100.82 80.37,100.77 80.88,100.71 81.40,100.65 81.94,100.58 82.50,100.50 83.10,100.41 83.75,100.31 84.46,100.19 85.25,100.06 86.12,99.91 87.08,99.74"/>
        <lane id=":110_1_1" index="1" disallow="bus truck rail_fast" speed="36.11" length="13.16" width="2.50" shape="74.35,103.80 75.34,103.72 76.23,103.64 77.04,103.57 77.77,103.51 78.43,103.46 79.05,103.41 79.62,103.35 80.17,103.30 80.69,103.25 81.21,103.19 81.74,103.13 82.28,103.06 82.85,102.98 83.46,102.89 84.12,102.78 84.84,102.66 85.64,102.53 86.52,102.38 87.50,102.21"/>
    </edge>
    <edge id=":110_3" function="internal">
        <lane id=":110_3_0" index="0" disallow="bus truck rail_fast" speed="12.39" length="13.13" width="2.50" shape="74.35,103.80 75.32,103.71 76.22,103.61 77.07,103.50 77.87,103.40 78.62,103.30 79.32,103.21 80.00,103.14 80.64,103.09 81.25,103.05 81.84,103.05 82.41,103.08 82.98,103.14 83.53,103.25 84.08,103.40 84.64,103.60 85.20,103.86 85.77,104.17 86.37,104.55 86.98,105.00"/>
    </edge>
    <edge id=":111_0" function="internal">
        <lane id=":111_0_0" index="0" disallow="rail_fast" speed="36.11" length="8.88" width="2.50" shape="-118.26,-92.35 -121.59,-100.62"/>
        <lane id=":111_0_1" index="1" disallow="rail_fast" speed="36.11" length="8.88" width="2.50" shape="-115.96,-93.32 -119.27,-101.54"/>
    </edge>
    <edge id=":111_2" function="internal">
        <lane id=":111_2_0" index="0" disallow="bus truck rail_fast" speed="36.11" length="7.39" width="2.50" shape="-116.29,-94.78 -119.27,-101.54"/>
    </edge>
    <edge id=":111_3" function="internal">
        <lane id=":111_3_0" index="0" disallow="bus truck rail_fast" speed="7.30" length="4.25" width="2.50" shape="-122.63,-96.49 -121.59,-100.62"/>
    </edge>
    <edge id=":112_0" function="internal">
        <lane id=":112_0_0" index="0" disallow="bus truck rail_fast" speed="6.70" length="7.36" width="2.50" shape="-142.58,-152.94 -142.83,-153.54 -143.07,-154.11 -143.31,-154.65 -143.55,-155.15 -143.78,-155.62 -144.01,-156.06 -144.23,-156.47 -144.45,-156.84 -144.67,-157.18 -144.88,-157.48 -145.09,-157.75 -145.30,-157.99 -145.50,-158.20 -145.70,-158.37 -145.90,-158.51 -146.09,-158.62 -146.28,-158.70 -146.46,-158.74 -146.64,-158.75"/>
    </edge>
    <edge id=":112_1" function="internal">
        <lane id=":112_1_0" index="0" disallow="bus truck rail_fast" speed="36.11" length="9.19" width="2.50" shape="-142.58,-152.94 -145.88,-161.55"/>
        <lane id=":112_1_1" index="1" disallow="bus truck rail_fast" speed="36.11" length="9.19" width="2.50" shape="-140.26,-153.87 -143.60,-162.40"/>
    </edge>
    <edge id=":112_3" function="internal">
        <lane id=":112_3_0" index="0" disallow="bus truck rail_fast" speed="10.46" length="8.56" width="2.50" shape="-140.26,-153.87 -140.49,-154.44 -140.70,-154.97 -140.89,-155.46 -141.06,-155.90 -141.20,-156.32 -141.32,-156.71 -141.42,-157.08 -141.49,-157.43 -141.54,-157.78 -141.57,-158.12 -141.57,-158.47 -141.55,-158.83 -141.51,-159.20 -141.44,-159.60 -141.34,-160.02 -141.22,-160.47 -141.08,-160.97 -140.91,-161.51 -140.72,-162.09"/>
    </edge>
    <edge id=":113_0" function="internal">
        <lane id=":113_0_0" index="0" disallow="rail_fast" speed="36.11" length="3.00" width="2.50" shape="-106.43,-89.08 -105.36,-86.27"/>
        <lane id=":113_0_1" index="1" disallow="rail_fast" speed="36.11" length="3.00" width="2.50" shape="-108.76,-88.16 -107.69,-85.37"/>
    </edge>
    <edge id=":113_2" function="internal">
        <lane id=":113_2_0" index="0" disallow="bus truck rail_fast" speed="36.11" length="3.00" width="2.50" shape="-106.47,-89.07 -105.36,-86.27"/>
        <lane id=":113_2_1" index="1" disallow="bus truck rail_fast" speed="36.11" length="3.00" width="2.50" shape="-108.80,-88.15 -107.69,-85.37"/>
    </edge>
    <edge id=":114_0" function="internal">
        <lane id=":114_0_0" index="0" disallow="bus truck rail_fast" speed="6.86" length="10.02" width="2.50" shape="-70.30,5.01 -70.01,5.73 -69.71,6.40 -69.40,7.03 -69.09,7.61 -68.76,8.14 -68.43,8.63 -68.09,9.07 -67.74,9.46 -67.38,9.81 -67.02,10.10 -66.64,10.36 -66.26,10.56 -65.87,10.72 -65.47,10.83 -65.06,10.89 -64.64,10.91 -64.22,10.88 -63.78,10.80 -63.34,10.68"/>
    </edge>
    <edge id=":114_1" function="internal">
        <lane id=":114_1_0" index="0" disallow="rail_fast" speed="36.11" length="9.22" width="2.50" shape="-70.30,5.01 -67.01,13.61"/>
        <lane id=":114_1_1" index="1" disallow="rail_fast" speed="36.11" length="9.22" width="2.50" shape="-72.63,5.91 -69.33,14.53"/>
    </edge>
    <edge id=":114_3" function="internal">
        <lane id=":114_3_0" index="0" disallow="bus truck rail_fast" speed="36.11" length="7.53" width="2.47" shape="-72.63,5.91 -72.42,6.43 -72.22,6.89 -72.03,7.31 -71.84,7.69 -71.66,8.03 -71.49,8.34 -71.33,8.63 -71.17,8.91 -71.02,9.18 -70.88,9.45 -70.75,9.72 -70.62,10.00 -70.51,10.31 -70.40,10.63 -70.30,10.99 -70.21,11.39 -70.12,11.84 -70.05,12.33 -69.98,12.89"/>
    </edge>
    <edge id=":115_0" function="internal">
        <lane id=":115_0_0" index="0" disallow="rail_fast" speed="36.11" length="7.99" width="2.50" shape="-58.49,60.48 -61.22,52.95"/>
        <lane id=":115_0_1" index="1" disallow="rail_fast" speed="36.11" length="7.99" width="2.50" shape="-56.15,59.61 -58.86,52.10"/>
    </edge>
    <edge id=":115_2" function="internal">
        <lane id=":115_2_0" index="0" disallow="bus truck rail_fast" speed="36.11" length="7.98" width="2.50" shape="-55.98,59.55 -58.86,52.10"/>
    </edge>
    <edge id=":116_0" function="internal">
        <lane id=":116_0_0" index="0" disallow="bus truck rail_fast" speed="36.11" length="8.00" width="2.50" shape="-71.07,25.26 -73.81,17.76"/>
        <lane id=":116_0_1" index="1" disallow="bus truck rail_fast" speed="36.11" length="8.00" width="2.50" shape="-68.71,24.42 -71.47,16.89"/>
    </edge>
    <edge id=":116_2" function="internal">
        <lane id=":116_2_0" index="0" disallow="bus truck rail_fast" speed="36.11" length="8.05" width="2.48" shape="-68.71,24.42 -68.92,23.85 -69.11,23.35 -69.29,22.89 -69.46,22.48 -69.62,22.10 -69.77,21.75 -69.91,21.43 -70.04,21.12 -70.17,20.82 -70.29,20.53 -70.40,20.23 -70.51,19.91 -70.62,19.58 -70.73,19.22 -70.83,18.83 -70.93,18.40 -71.04,17.93 -71.14,17.40 -71.25,16.80"/>
    </edge>
    <edge id=":117_0" function="internal">
        <lane id=":117_0_0" index="0" disallow="rail_fast" speed="36.11" length="9.02" width="2.50" shape="20.62,274.33 17.50,265.84"/>
        <lane id=":117_0_1" index="1" disallow="rail_fast" speed="36.11" length="9.02" width="2.50" shape="22.95,273.43 19.85,264.99"/>
    </edge>
    <edge id=":117_2" function="internal">
        <lane id=":117_2_0" index="0" disallow="bus truck rail_fast" speed="36.11" length="7.31" width="2.50" shape="22.55,271.78 19.85,264.99"/>
    </edge>
    <edge id=":117_3" function="internal">
        <lane id=":117_3_0" index="0" disallow="bus truck rail_fast" speed="36.11" length="2.22" width="2.50" shape="18.27,267.93 18.23,267.77 18.19,267.62 18.15,267.49 18.12,267.37 18.08,267.27 18.05,267.17 18.01,267.08 17.98,266.99 17.95,266.91 17.91,266.83 17.87,266.75 17.84,266.66 17.80,266.58 17.76,266.48 17.71,266.38 17.66,266.26 17.61,266.14 17.56,266.00 17.50,265.84"/>
    </edge>
    <edge id=":118_0" function="internal">
        <lane id=":118_0_0" index="0" disallow="bus truck rail_fast" speed="6.93" length="6.43" width="2.50" shape="-36.57,118.83 -36.63,118.65 -36.72,118.42 -36.82,118.15 -36.94,117.83 -37.07,117.49 -37.22,117.12 -37.37,116.74 -37.54,116.34 -37.71,115.94 -37.89,115.54 -38.08,115.15 -38.27,114.78 -38.46,114.43 -38.64,114.12 -38.83,113.84 -39.01,113.60 -39.19,113.42 -39.36,113.29 -39.52,113.23"/>
    </edge>
    <edge id=":118_1" function="internal">
        <lane id=":118_1_0" index="0" disallow="rail_fast" speed="36.11" length="13.68" width="2.50" shape="-36.57,118.83 -41.35,106.01"/>
        <lane id=":118_1_1" index="1" disallow="rail_fast" speed="36.11" length="13.68" width="2.50" shape="-34.23,117.96 -39.01,105.14"/>
    </edge>
    <edge id=":118_3" function="internal">
        <lane id=":118_3_0" index="0" disallow="bus truck rail_fast" speed="5.83" length="11.89" width="2.50" shape="-34.23,117.96 -33.52,106.09"/>
    </edge>
    <edge id=":12_0" function="internal">
        <lane id=":12_0_0" index="0" disallow="bus truck rail_fast" speed="6.53" length="8.48" width="2.50" shape="100.37,104.61 100.17,104.67 99.88,104.75 99.52,104.85 99.09,104.97 98.61,105.12 98.09,105.27 97.53,105.44 96.96,105.63 96.38,105.82 95.81,106.02 95.24,106.22 94.71,106.43 94.21,106.63 93.76,106.84 93.37,107.04 93.06,107.23 92.82,107.42 92.69,107.60 92.65,107.76"/>
    </edge>
    <edge id=":12_1" function="internal">
        <lane id=":12_1_0" index="0" disallow="bus truck rail_fast" speed="36.11" length="10.53" width="2.50" shape="100.37,104.61 99.60,104.82 98.91,105.01 98.28,105.18 97.71,105.33 97.19,105.46 96.71,105.58 96.26,105.69 95.84,105.78 95.42,105.87 95.01,105.95 94.59,106.03 94.16,106.11 93.70,106.20 93.22,106.28 92.69,106.37 92.11,106.47 91.47,106.58 90.76,106.71 89.98,106.84"/>
        <lane id=":12_1_1" index="1" disallow="bus truck rail_fast" speed="36.11" length="10.53" width="2.50" shape="99.73,102.20 98.97,102.41 98.30,102.60 97.69,102.77 97.13,102.93 96.63,103.07 96.16,103.20 95.72,103.32 95.30,103.42 94.90,103.52 94.50,103.62 94.09,103.71 93.67,103.79 93.23,103.88 92.75,103.97 92.23,104.05 91.66,104.14 91.03,104.24 90.34,104.34 89.57,104.45"/>
    </edge>
    <edge id=":12_3" function="internal">
        <lane id=":12_3_0" index="0" disallow="bus truck rail_fast" speed="10.41" length="11.08" width="2.50" shape="99.73,102.20 98.96,102.40 98.21,102.58 97.49,102.74 96.79,102.87 96.11,102.98 95.46,103.07 94.82,103.13 94.21,103.17 93.62,103.19 93.05,103.18 92.51,103.15 91.98,103.10 91.48,103.02 91.00,102.92 90.55,102.79 90.11,102.64 89.70,102.47 89.31,102.28 88.94,102.06"/>
    </edge>
    <edge id=":13_0" function="internal">
        <lane id=":13_0_0" index="0" disallow="bus truck rail_fast" speed="24.22" length="9.96" width="2.50" shape="88.71,98.02 89.45,98.09 90.12,98.15 90.72,98.20 91.27,98.25 91.78,98.29 92.24,98.32 92.68,98.34 93.09,98.34 93.49,98.34 93.89,98.32 94.29,98.29 94.70,98.24 95.12,98.17 95.58,98.08 96.07,97.98 96.60,97.85 97.19,97.71 97.84,97.53 98.55,97.34"/>
    </edge>
    <edge id=":13_1" function="internal">
        <lane id=":13_1_0" index="0" disallow="bus truck rail_fast" speed="36.11" length="11.63" width="2.50" shape="87.28,99.71 88.13,99.56 88.90,99.43 89.59,99.31 90.22,99.20 90.79,99.11 91.32,99.02 91.81,98.93 92.28,98.85 92.74,98.77 93.18,98.68 93.63,98.59 94.10,98.49 94.59,98.38 95.11,98.25 95.67,98.11 96.29,97.95 96.97,97.77 97.72,97.57 98.55,97.34"/>
        <lane id=":13_1_1" index="1" disallow="bus truck rail_fast" speed="36.11" length="11.63" width="2.50" shape="87.69,102.17 88.56,102.02 89.34,101.89 90.05,101.77 90.69,101.66 91.27,101.56 91.81,101.47 92.31,101.38 92.79,101.30 93.25,101.21 93.71,101.12 94.17,101.03 94.64,100.93 95.14,100.81 95.67,100.69 96.25,100.54 96.87,100.38 97.56,100.20 98.33,99.99 99.18,99.76"/>
    </edge>
    <edge id=":13_3" function="internal">
        <lane id=":13_3_0" index="0" disallow="bus truck rail_fast" speed="14.20" length="10.13" width="2.50" shape="90.44,104.41 90.96,103.87 91.43,103.40 91.87,102.97 92.28,102.60 92.67,102.27 93.04,101.99 93.40,101.73 93.75,101.51 94.11,101.32 94.48,101.15 94.86,100.99 95.27,100.84 95.70,100.71 96.16,100.57 96.66,100.43 97.20,100.29 97.80,100.13 98.46,99.95 99.18,99.76"/>
    </edge>
    <edge id=":16_0" function="internal">
        <lane id=":16_0_0" index="0" disallow="bus truck rail_fast" speed="6.61" length="7.86" width="2.50" shape="-128.20,-169.73 -128.83,-169.41 -129.42,-169.10 -129.98,-168.80 -130.49,-168.50 -130.98,-168.21 -131.42,-167.93 -131.83,-167.65 -132.20,-167.38 -132.54,-167.12 -132.84,-166.86 -133.10,-166.61 -133.33,-166.36 -133.52,-166.12 -133.68,-165.89 -133.79,-165.67 -133.88,-165.45 -133.92,-165.23 -133.93,-165.03 -133.90,-164.83"/>
    </edge>
    <edge id=":16_1" function="internal">
        <lane id=":16_1_0" index="0" disallow="bus truck rail_fast" speed="36.11" length="8.70" width="2.50" shape="-128.20,-169.73 -128.79,-169.44 -129.31,-169.18 -129.78,-168.93 -130.21,-168.71 -130.59,-168.50 -130.95,-168.31 -131.28,-168.12 -131.58,-167.93 -131.88,-167.75 -132.17,-167.56 -132.46,-167.37 -132.76,-167.17 -133.07,-166.95 -133.40,-166.71 -133.75,-166.45 -134.14,-166.17 -134.57,-165.86 -135.05,-165.52 -135.58,-165.14"/>
    </edge>
    <edge id=":18_0" function="internal">
        <lane id=":18_0_0" index="0" disallow="bus truck rail_fast" speed="5.22" length="5.59" width="2.50" shape="-162.70,-63.07 -162.43,-62.92 -162.17,-62.80 -161.90,-62.70 -161.64,-62.62 -161.39,-62.58 -161.13,-62.56 -160.88,-62.56 -160.63,-62.59 -160.38,-62.65 -160.14,-62.74 -159.90,-62.85 -159.66,-62.99 -159.42,-63.16 -159.19,-63.35 -158.96,-63.57 -158.73,-63.81 -158.51,-64.09 -158.29,-64.38 -158.07,-64.71"/>
    </edge>
    <edge id=":18_1" function="internal">
        <lane id=":18_1_0" index="0" disallow="bus truck rail_fast" speed="5.02" length="5.09" width="2.50" shape="-162.70,-63.07 -162.55,-62.98 -162.36,-62.87 -162.15,-62.73 -161.91,-62.58 -161.65,-62.42 -161.38,-62.24 -161.10,-62.05 -160.82,-61.85 -160.54,-61.65 -160.27,-61.44 -160.02,-61.24 -159.78,-61.03 -159.57,-60.82 -159.39,-60.62 -159.24,-60.43 -159.14,-60.24 -159.08,-60.07 -159.07,-59.91 -159.12,-59.76"/>
    </edge>
    <edge id=":19_0" function="internal">
        <lane id=":19_0_0" index="0" disallow="bus truck rail_fast" speed="7.52" length="3.38" width="2.45" shape="-161.11,-61.46 -164.48,-61.23"/>
    </edge>
    <edge id=":19_1" function="internal">
        <lane id=":19_1_0" index="0" disallow="bus truck rail_fast" speed="4.07" length="4.35" width="2.45" shape="-164.83,-58.06 -164.55,-58.23 -164.29,-58.40 -164.06,-58.57 -163.86,-58.74 -163.69,-58.91 -163.56,-59.08 -163.45,-59.25 -163.37,-59.41 -163.32,-59.58 -163.30,-59.75 -163.31,-59.91 -163.35,-60.08 -163.43,-60.25 -163.53,-60.41 -163.66,-60.58 -163.82,-60.74 -164.01,-60.91 -164.23,-61.07 -164.48,-61.23"/>
    </edge>
    <edge id=":2_0" function="internal">
        <lane id=":2_0_0" index="0" disallow="bus truck rail_fast" speed="7.93" length="6.55" width="2.50" shape="92.09,114.70 91.84,114.22 91.60,113.76 91.37,113.33 91.13,112.93 90.90,112.54 90.68,112.18 90.46,111.85 90.24,111.54 90.03,111.25 89.82,110.98 89.62,110.74 89.42,110.52 89.22,110.33 89.03,110.16 88.84,110.01 88.65,109.89 88.47,109.79 88.29,109.71 88.12,109.66"/>
    </edge>
    <edge id=":2_1" function="internal">
        <lane id=":2_1_0" index="0" disallow="bus truck rail_fast" speed="36.11" length="10.84" width="2.50" shape="92.09,114.70 87.25,104.99"/>
    </edge>
    <edge id=":2_2" function="internal">
        <lane id=":2_2_0" index="0" disallow="bus truck rail_fast" speed="8.07" length="10.79" width="2.50" shape="92.09,114.70 91.69,113.88 91.32,113.10 90.99,112.36 90.69,111.64 90.43,110.95 90.20,110.29 90.01,109.67 89.84,109.07 89.72,108.51 89.62,107.97 89.56,107.47 89.54,107.00 89.54,106.56 89.59,106.15 89.66,105.77 89.77,105.42 89.92,105.10 90.09,104.81 90.30,104.55"/>
    </edge>
    <edge id=":21_0" function="internal">
        <lane id=":21_0_0" index="0" disallow="bus truck rail_fast" speed="36.11" length="3.07" width="2.50" shape="20.71,-23.42 20.48,-23.36 20.29,-23.31 20.11,-23.26 19.94,-23.21 19.80,-23.16 19.66,-23.11 19.54,-23.07 19.42,-23.02 19.31,-22.97 19.20,-22.92 19.08,-22.87 18.97,-22.82 18.85,-22.76 18.72,-22.70 18.58,-22.63 18.43,-22.56 18.26,-22.48 18.07,-22.39 17.86,-22.30"/>
    </edge>
    <edge id=":22_0" function="internal">
        <lane id=":22_0_0" index="0" disallow="bus truck rail_fast" speed="6.21" length="7.39" width="2.50" shape="-59.51,11.87 -59.69,11.95 -59.94,12.06 -60.25,12.20 -60.61,12.36 -61.00,12.54 -61.43,12.74 -61.88,12.95 -62.35,13.18 -62.81,13.41 -63.28,13.66 -63.73,13.90 -64.15,14.15 -64.54,14.39 -64.89,14.63 -65.19,14.85 -65.43,15.07 -65.60,15.27 -65.70,15.46 -65.70,15.62"/>
    </edge>
    <edge id=":22_1" function="internal">
        <lane id=":22_1_0" index="0" disallow="bus truck rail_fast" speed="36.11" length="7.45" width="2.47" shape="-59.51,11.87 -66.36,14.79"/>
    </edge>
    <edge id=":23_0" function="internal">
        <lane id=":23_0_0" index="0" disallow="bus truck rail_fast" speed="36.11" length="2.83" width="2.50" shape="-63.20,10.63 -63.00,10.56 -62.82,10.50 -62.66,10.45 -62.51,10.40 -62.38,10.35 -62.25,10.31 -62.14,10.27 -62.03,10.23 -61.92,10.19 -61.82,10.15 -61.71,10.11 -61.60,10.06 -61.49,10.01 -61.37,9.96 -61.24,9.90 -61.10,9.84 -60.94,9.77 -60.77,9.69 -60.57,9.61"/>
    </edge>
    <edge id=":23_1" function="internal">
        <lane id=":23_1_0" index="0" disallow="bus truck rail_fast" speed="36.11" length="5.18" width="2.50" shape="-65.32,11.67 -60.57,9.61"/>
    </edge>
    <edge id=":24_0" function="internal">
        <lane id=":24_0_0" index="0" disallow="bus truck rail_fast" speed="36.11" length="3.09" width="2.50" shape="16.87,-24.60 17.08,-24.69 17.27,-24.78 17.44,-24.86 17.59,-24.93 17.73,-25.00 17.86,-25.07 17.98,-25.13 18.10,-25.19 18.21,-25.24 18.32,-25.29 18.43,-25.34 18.55,-25.39 18.68,-25.44 18.81,-25.49 18.96,-25.54 19.12,-25.59 19.30,-25.64 19.50,-25.70 19.72,-25.76"/>
    </edge>
    <edge id=":25_0" function="internal">
        <lane id=":25_0_0" index="0" disallow="bus truck rail_fast" speed="21.69" length="6.19" width="2.50" shape="33.02,278.28 33.02,278.74 33.03,279.16 33.04,279.53 33.05,279.88 33.07,280.19 33.09,280.48 33.11,280.75 33.14,281.00 33.18,281.25 33.22,281.49 33.28,281.73 33.34,281.98 33.41,282.24 33.50,282.52 33.60,282.81 33.71,283.14 33.84,283.49 33.98,283.88 34.14,284.32"/>
    </edge>
    <edge id=":25_1" function="internal">
        <lane id=":25_1_0" index="0" disallow="rail_fast" speed="36.11" length="9.21" width="2.50" shape="30.98,275.63 34.14,284.32"/>
        <lane id=":25_1_1" index="1" disallow="rail_fast" speed="36.11" length="9.21" width="2.50" shape="28.66,276.54 31.79,285.17"/>
    </edge>
    <edge id=":25_3" function="internal">
        <lane id=":25_3_0" index="0" disallow="bus truck rail_fast" speed="36.11" length="8.15" width="2.50" shape="28.71,277.63 31.79,285.17"/>
    </edge>
    <edge id=":27_0" function="internal">