<routes>
	<vehicle depart="0.1" departLane="0" departPos="33.14747165530249" departSpeed="0.0" id="315" type="bicycle">
		<route edges="262 103"/>
	</vehicle>
	<vehicle depart="0.1" departLane="0" departPos="89.33395778109666" departSpeed="6.8866171" id="317" type="bicycle">
		<route edges="107 110"/>
	</vehicle>
	<vehicle depart="0.1" departLane="0" departPos="20.384775950378042" departSpeed="5.1823967" id="350" type="bus">
		<route edges="88 181"/>
	</vehicle>
	<vehicle depart="0.1" departLane="0" departPos="56.110423210482075" departSpeed="0.0" id="35" type="passenger">
		<route edges="180 89"/>
	</vehicle>
	<vehicle depart="0.1" departLane="0" departPos="62.87086828063811" departSpeed="0.0" id="37" type="passenger">
		<route edges="180 89"/>
	</vehicle>
	<vehicle depart="0.1" departLane="0" departPos="33.403042117635906" departSpeed="0.0" id="38" type="passenger">
		<route edges="262 103"/>
	</vehicle>
	<vehicle depart="0.1" departLane="0" departPos="26.535304871404954" departSpeed="0.0" id="311" type="passenger">
		<route edges="262 103"/>
	</vehicle>
	<vehicle depart="0.1" departLane="0" departPos="17.550414967692284" departSpeed="12.114013" id="314" type="passenger">
		<route edges="110"/>
	</vehicle>
	<vehicle depart="0.1" departLane="0" departPos="24.17703506840626" departSpeed="0.0" id="316" type="passenger">
		<route edges="104 261"/>
	</vehicle>
	<vehicle depart="0.1" departLane="0" departPos="48.94738832704988" departSpeed="0.0" id="319" type="passenger">
		<route edges="180 89"/>
	</vehicle>
	<vehicle depart="0.1" departLane="0" departPos="69.93062924135286" departSpeed="0.0" id="320" type="passenger">
		<route edges="109 106"/>
	</vehicle>
	<vehicle depart="0.1" departLane="0" departPos="99.49012169392914" departSpeed="10.60679" id="321" type="passenger">
		<route edges="106 103"/>
	</vehicle>
	<vehicle depart="0.1" departLane="0" departPos="19.612193722726147" departSpeed="0.0" id="322" type="passenger">
		<route edges="262 103"/>
	</vehicle>
	<vehicle depart="0.1" departLane="0" departPos="41.44253085851617" departSpeed="3.7117023e-05" id="324" type="passenger">
		<route edges="180 89"/>
	</vehicle>
	<vehicle depart="0.1" departLane="0" departPos="62.59437938578946" departSpeed="0.21440029" id="328" type="passenger">
		<route edges="109 106"/>
	</vehicle>
	<vehicle depart="0.1" departLane="0" departPos="34.34746585736043" departSpeed="0.00035262125" id="330" type="passenger">
		<route edges="180 89"/>
	</vehicle>
	<vehicle depart="0.1" departLane="0" departPos="27.249891382937694" departSpeed="0.002037286" id="333" type="passenger">
		<route edges="180 89"/>
	</vehicle>
	<vehicle depart="0.1" departLane="0" departPos="20.14678577482757" departSpeed="0.0092438094" id="335" type="passenger">
		<route edges="180 89"/>
	</vehicle>
	<vehicle depart="0.1" departLane="0" departPos="57.979960413541384" departSpeed="19.858036" id="336" type="passenger">
		<route edges="85 106 103"/>
	</vehicle>
	<vehicle depart="0.1" departLane="0" departPos="34.84248311857046" departSpeed="18.493999" id="338" type="passenger">
		<route edges="85 106 103"/>
	</vehicle>
	<vehicle depart="0.1" departLane="0" departPos="49.48059800154767" departSpeed="1.1707029" id="339" type="passenger">
		<route edges="109 106"/>
	</vehicle>
	<vehicle depart="0.1" departLane="0" departPos="13.158864443342873" departSpeed="0.032349222" id="340" type="passenger">
		<route edges="180 89"/>
	</vehicle>
	<vehicle depart="0.1" departLane="0" departPos="40.72257788188161" departSpeed="1.4107723" id="341" type="passenger">
		<route edges="109 106"/>
	</vehicle>
	<vehicle depart="0.1" departLane="0" departPos="12.301188450625439" departSpeed="8.6111548" id="342" type="passenger">
		<route edges=":30_1 181"/>
	</vehicle>
	<vehicle depart="0.1" departLane="0" departPos="31.543570088622797" departSpeed="1.6154551" id="344" type="passenger">
		<route edges="109 106"/>
	</vehicle>
	<vehicle depart="0.1" departLane="0" departPos="49.688948594546524" departSpeed="9.6908514" id="345" type="passenger">
		<route edges="88 85 106 103"/>
	</vehicle>
	<vehicle depart="0.1" departLane="0" departPos="22.006332958392075" departSpeed="1.993212" id="346" type="passenger">
		<route edges="109 106"/>
	</vehicle>
	<vehicle depart="0.1" departLane="0" departPos="34.387082953096154" departSpeed="8.9700616" id="347" type="passenger">
		<route edges="88 85 106 103"/>
	</vehicle>
	<vehicle depart="0.1" departLane="0" departPos="5.99767620812737" departSpeed="0.072936324" id="348" type="passenger">
		<route edges="180 89"/>
	</vehicle>
	<vehicle depart="0.1" departLane="0" departPos="12.391743014531453" departSpeed="2.1575719" id="349" type="passenger">
		<route edges="109 106"/>
	</vehicle>
	<vehicle depart="0.1" departLane="0" departPos="5.623657682779806" departSpeed="1.9810992" id="351" type="passenger">
		<route edges="88 181"/>
	</vehicle>
	<vehicle depart="0.1" departLane="0" departPos="54.48955322256115" departSpeed="17.720274" id="332" type="motorcycle">
		<route edges="106 103"/>
	</vehicle>
	<vehicle depart="0.1" departLane="0" departPos="55.16693251019591" departSpeed="0.69933421" id="334" type="motorcycle">
		<route edges="109 106"/>
	</vehicle>
	<vehicle depart="0.1" departLane="0" departPos="24.488159426404295" departSpeed="0.0" id="337" type="motorcycle">
		<route edges="104 261"/>
	</vehicle>
	<vehicle depart="0.1" departLane="0" departPos="12.78674469410521" departSpeed="0.0" id="327" type="truck">
		<route edges="262 103"/>
	</vehicle>
</routes>
