<!-- generated on Tue Feb  9 22:07:22 2021 by Eclipse SUMO netconvert Version 1.8.0
<configuration xmlns:xsi="http://www.w3.org/2001/XMLSchema-instance" xsi:noNamespaceSchemaLocation="http://sumo.dlr.de/xsd/netconvertConfiguration.xsd">

    <input>
        <node-files value="./converted_scenarios/scenario-factory/DEU_Guetersloh-16_4_I-1-1/DEU_Guetersloh-16_4_I-1-1.nod.xml"/>
        <edge-files value="./converted_scenarios/scenario-factory/DEU_Guetersloh-16_4_I-1-1/DEU_Guetersloh-16_4_I-1-1.edg.xml"/>
        <connection-files value="./converted_scenarios/scenario-factory/DEU_Guetersloh-16_4_I-1-1/DEU_Guetersloh-16_4_I-1-1.con.xml"/>
        <tllogic-files value="./converted_scenarios/scenario-factory/DEU_Guetersloh-16_4_I-1-1/DEU_Guetersloh-16_4_I-1-1.tll.xml"/>
        <type-files value="/home/zen/commonroad-interactive-benchmarks/install/commonroad-map-tool/crmapconverter/sumo_map/templates/DEU.typ.xml"/>
    </input>

    <output>
        <output-file value="./converted_scenarios/scenario-factory/DEU_Guetersloh-16_4_I-1-1/DEU_Guetersloh-16_4_I-1-1.net.xml"/>
    </output>

    <processing>
        <geometry.remove.keep-edges.explicit value="true"/>
        <geometry.avoid-overlap value="true"/>
        <offset.disable-normalization value="true"/>
    </processing>

    <junctions>
        <no-turnarounds value="true"/>
        <junctions.internal-link-detail value="20"/>
    </junctions>

    <report>
        <aggregate-warnings value="5"/>
    </report>

    <random_number>
        <seed value="1234"/>
    </random_number>

</configuration>
--><net xmlns:xsi="http://www.w3.org/2001/XMLSchema-instance" version="1.6" junctionCornerDetail="5" junctionLinkDetail="20" limitTurnSpeed="5.50" xsi:noNamespaceSchemaLocation="http://sumo.dlr.de/xsd/net_file.xsd">

    <location netOffset="0.00,0.00" convBoundary="290.31,-277.36,517.74,21.58" origBoundary="290.31,-277.36,517.74,21.58" projParameter="!"/>

    <type id="highway.bridleway" priority="1" speed="2.78" allow="pedestrian" oneway="1" width="2.00"/>
    <type id="highway.bus_guideway" priority="1" speed="27.78" allow="bus" oneway="1"/>
    <type id="highway.cycleway" priority="1" speed="8.33" allow="bicycle" oneway="0" width="1.00"/>
    <type id="highway.footway" priority="1" speed="2.78" allow="pedestrian" oneway="1" width="2.00"/>
    <type id="highway.ford" priority="1" speed="2.78" allow="army" oneway="0"/>
    <type id="highway.living_street" priority="2" speed="2.78" disallow="tram rail_urban rail rail_electric rail_fast ship" oneway="0"/>
    <type id="highway.motorway" priority="14" speed="39.44" allow="private emergency authority army vip passenger hov taxi bus coach delivery truck trailer motorcycle evehicle custom1 custom2" oneway="1"/>
    <type id="highway.motorway_link" priority="9" speed="22.22" allow="private emergency authority army vip passenger hov taxi bus coach delivery truck trailer motorcycle evehicle custom1 custom2" oneway="1"/>
    <type id="highway.path" priority="1" speed="2.78" allow="pedestrian bicycle" oneway="0" width="2.00"/>
    <type id="highway.pedestrian" priority="1" speed="2.78" allow="pedestrian" oneway="1" width="2.00"/>
    <type id="highway.primary" priority="12" speed="27.78" disallow="pedestrian tram rail_urban rail rail_electric rail_fast ship" oneway="0"/>
    <type id="highway.primary_link" priority="7" speed="22.22" disallow="pedestrian tram rail_urban rail rail_electric rail_fast ship" oneway="0"/>
    <type id="highway.raceway" priority="15" speed="83.33" allow="vip" oneway="0"/>
    <type id="highway.residential" priority="3" speed="13.89" disallow="pedestrian tram rail_urban rail rail_electric rail_fast ship" oneway="0"/>
    <type id="highway.secondary" priority="11" speed="27.78" disallow="pedestrian tram rail_urban rail rail_electric rail_fast ship" oneway="0"/>
    <type id="highway.secondary_link" priority="6" speed="22.22" disallow="pedestrian tram rail_urban rail rail_electric rail_fast ship" oneway="0"/>
    <type id="highway.service" priority="1" speed="5.56" allow="pedestrian delivery bicycle" oneway="0"/>
    <type id="highway.stairs" priority="1" speed="1.39" allow="pedestrian" oneway="1" width="2.00"/>
    <type id="highway.step" priority="1" speed="1.39" allow="pedestrian" oneway="1" width="2.00"/>
    <type id="highway.steps" priority="1" speed="1.39" allow="pedestrian" oneway="1" width="2.00"/>
    <type id="highway.tertiary" priority="10" speed="22.22" disallow="pedestrian tram rail_urban rail rail_electric rail_fast ship" oneway="0"/>
    <type id="highway.tertiary_link" priority="5" speed="22.22" disallow="pedestrian tram rail_urban rail rail_electric rail_fast ship" oneway="0"/>
    <type id="highway.track" priority="1" speed="5.56" allow="pedestrian motorcycle moped bicycle" oneway="0"/>
    <type id="highway.trunk" priority="13" speed="27.78" disallow="pedestrian bicycle tram rail_urban rail rail_electric rail_fast ship" oneway="0"/>
    <type id="highway.trunk_link" priority="8" speed="22.22" disallow="pedestrian bicycle tram rail_urban rail rail_electric rail_fast ship" oneway="0"/>
    <type id="highway.unclassified" priority="4" speed="13.89" disallow="pedestrian tram rail_urban rail rail_electric rail_fast ship" oneway="0"/>
    <type id="highway.unsurfaced" priority="1" speed="8.33" disallow="tram rail_urban rail rail_electric rail_fast ship" oneway="0"/>
    <type id="railway.highspeed" priority="21" speed="69.44" allow="rail_fast" oneway="1"/>
    <type id="railway.light_rail" priority="19" speed="27.78" allow="rail_urban" oneway="1"/>
    <type id="railway.preserved" priority="16" speed="27.78" allow="rail" oneway="1"/>
    <type id="railway.rail" priority="20" speed="44.44" allow="rail" oneway="1"/>
    <type id="railway.subway" priority="18" speed="27.78" allow="rail_urban" oneway="1"/>
    <type id="railway.tram" priority="17" speed="13.89" allow="tram" oneway="1"/>

    <edge id=":41_0" function="internal">
        <lane id=":41_0_0" index="0" disallow="pedestrian tram rail_urban rail rail_electric rail_fast ship" speed="11.76" length="29.23" width="3.50" shape="454.51,-150.55 452.41,-151.25 450.28,-151.76 448.14,-152.04 446.01,-152.08 443.92,-151.83 441.89,-151.28 439.97,-150.43 438.18,-149.31 436.52,-147.95 435.01,-146.40 433.63,-144.68 432.39,-142.85 430.72,-139.90"/>
    </edge>
    <edge id=":41_1" function="internal">
        <lane id=":41_1_0" index="0" disallow="pedestrian tram rail_urban rail rail_electric rail_fast ship" speed="36.11" length="39.73" width="3.50" shape="454.51,-150.55 439.86,-156.08 424.30,-162.20 417.55,-165.12"/>
    </edge>
    <edge id=":41_2" function="internal">
        <lane id=":41_2_0" index="0" disallow="pedestrian tram rail_urban rail rail_electric rail_fast ship" speed="12.48" length="34.61" width="3.50" shape="454.51,-150.55 452.21,-151.50 449.97,-152.63 447.81,-153.97 445.78,-155.56 443.95,-157.41 442.42,-159.51 441.74,-160.69 441.19,-161.89 440.73,-163.13 440.37,-164.43 439.95,-166.97 439.87,-169.55 440.08,-172.09 440.52,-174.59 441.51,-178.15"/>
    </edge>
    <edge id=":41_3" function="internal">
        <lane id=":41_3_0" index="0" disallow="pedestrian tram rail_urban rail rail_electric rail_fast ship" speed="11.49" length="29.19" width="3.50" shape="444.84,-177.07 443.97,-173.94 443.59,-171.81 443.41,-169.66 443.48,-167.50 443.82,-165.36 444.12,-164.32 444.49,-163.31 444.94,-162.33 445.47,-161.38 446.75,-159.64 448.27,-158.10 449.97,-156.77 451.81,-155.63 453.74,-154.66 455.74,-153.83"/>
    </edge>
    <edge id=":41_4" function="internal">
        <lane id=":41_4_0" index="0" disallow="pedestrian tram rail_urban rail rail_electric rail_fast ship" speed="36.11" length="39.79" width="3.50" shape="444.84,-177.07 439.75,-162.21 435.74,-151.42 432.52,-143.69 430.72,-139.90"/>
    </edge>
    <edge id=":41_5" function="internal">
        <lane id=":41_5_0" index="0" disallow="pedestrian tram rail_urban rail rail_electric rail_fast ship" speed="11.78" length="35.12" width="3.50" shape="444.84,-177.07 443.44,-173.44 442.24,-171.08 440.80,-168.82 439.07,-166.76 438.04,-165.78 436.94,-164.92 435.76,-164.15 434.50,-163.51 433.18,-163.00 431.82,-162.62 430.43,-162.38 429.04,-162.28 427.66,-162.29 426.28,-162.40 423.66,-162.89 421.11,-163.65 417.55,-165.12"/>
    </edge>
    <edge id=":41_6" function="internal">
        <lane id=":41_6_0" index="0" disallow="pedestrian tram rail_urban rail rail_electric rail_fast ship" speed="10.76" length="29.06" width="3.50" shape="419.03,-168.29 422.12,-167.01 424.27,-166.37 426.47,-165.97 427.58,-165.88 428.70,-165.87 429.82,-165.96 430.92,-166.15 432.00,-166.45 433.04,-166.85 434.03,-167.36 434.97,-167.97 435.85,-168.67 436.66,-169.44 438.10,-171.15 439.30,-173.04 440.31,-175.04 441.51,-178.15"/>
    </edge>
    <edge id=":41_7" function="internal">
        <lane id=":41_7_0" index="0" disallow="pedestrian tram rail_urban rail rail_electric rail_fast ship" speed="36.11" length="39.46" width="3.50" shape="419.03,-168.29 425.69,-165.41 441.16,-159.33 455.74,-153.83"/>
    </edge>
    <edge id=":41_8" function="internal">
        <lane id=":41_8_0" index="0" disallow="pedestrian tram rail_urban rail rail_electric rail_fast ship" speed="12.28" length="35.29" width="3.50" shape="419.03,-168.29 420.17,-167.73 423.42,-165.89 425.53,-164.44 427.52,-162.80 429.35,-160.94 430.93,-158.85 431.63,-157.67 432.22,-156.46 432.71,-155.19 433.08,-153.89 433.34,-152.55 433.48,-151.21 433.50,-149.83 433.25,-147.22 432.65,-144.67 431.79,-142.23 430.72,-139.90"/>
    </edge>
    <edge id=":41_9" function="internal">
        <lane id=":41_9_0" index="0" disallow="pedestrian tram rail_urban rail rail_electric rail_fast ship" speed="11.28" length="29.60" width="3.50" shape="427.60,-141.47 428.52,-143.48 429.25,-145.55 429.74,-147.69 429.93,-149.88 429.90,-150.97 429.77,-152.06 429.55,-153.14 429.24,-154.19 428.83,-155.21 428.34,-156.19 427.77,-157.13 426.43,-158.86 424.88,-160.42 423.18,-161.80 421.37,-163.04 418.50,-164.65 417.55,-165.12"/>
    </edge>
    <edge id=":41_10" function="internal">
        <lane id=":41_10_0" index="0" disallow="pedestrian tram rail_urban rail rail_electric rail_fast ship" speed="36.11" length="39.25" width="3.50" shape="427.60,-141.47 429.35,-145.17 432.51,-152.78 436.48,-163.45 441.51,-178.15"/>
    </edge>
    <edge id=":41_11" function="internal">
        <lane id=":41_11_0" index="0" disallow="pedestrian tram rail_urban rail rail_electric rail_fast ship" speed="12.73" length="34.40" width="3.50" shape="427.60,-141.47 429.49,-144.82 430.92,-146.92 432.52,-148.90 434.30,-150.72 436.28,-152.33 438.45,-153.66 440.78,-154.67 443.24,-155.32 445.77,-155.62 448.32,-155.57 450.84,-155.22 453.32,-154.63 455.74,-153.83"/>
    </edge>
    <edge id=":42_0" function="internal">
        <lane id=":42_0_0" index="0" disallow="pedestrian tram rail_urban rail rail_electric rail_fast ship" speed="11.26" length="28.72" width="3.50" shape="422.85,-84.99 419.87,-86.38 417.78,-87.11 415.63,-87.64 413.44,-87.90 412.33,-87.91 411.23,-87.84 410.13,-87.68 409.06,-87.43 408.01,-87.09 406.99,-86.65 406.01,-86.14 404.19,-84.88 402.56,-83.39 401.11,-81.72 399.83,-79.91 398.69,-78.02"/>
    </edge>
    <edge id=":42_1" function="internal">
        <lane id=":42_1_0" index="0" disallow="pedestrian tram rail_urban rail rail_electric rail_fast ship" speed="12.26" length="33.96" width="3.50" shape="422.85,-84.99 419.63,-86.91 417.55,-88.44 415.62,-90.17 413.88,-92.15 412.43,-94.34 411.81,-95.58 411.31,-96.83 410.91,-98.13 410.64,-99.45 410.47,-100.82 410.46,-103.45 410.81,-106.06 411.46,-108.58 412.35,-110.98 413.41,-113.27"/>
    </edge>
    <edge id=":42_2" function="internal">
        <lane id=":42_2_0" index="0" disallow="pedestrian tram rail_urban rail rail_electric rail_fast ship" speed="11.26" length="28.47" width="3.50" shape="416.54,-111.71 415.62,-109.72 414.86,-107.66 414.31,-105.54 414.02,-103.37 414.03,-101.18 414.17,-100.09 414.40,-99.02 414.72,-97.97 415.13,-96.95 415.63,-95.98 416.84,-94.15 418.29,-92.51 419.92,-91.05 421.69,-89.75 424.49,-88.08"/>
    </edge>
    <edge id=":42_3" function="internal">
        <lane id=":42_3_0" index="0" disallow="pedestrian tram rail_urban rail rail_electric rail_fast ship" speed="36.11" length="38.13" width="3.50" shape="416.54,-111.71 407.53,-94.33 398.69,-78.02"/>
    </edge>
    <edge id=":42_4" function="internal">
        <lane id=":42_4_0" index="0" disallow="pedestrian tram rail_urban rail rail_electric rail_fast ship" speed="36.11" length="37.98" width="3.50" shape="395.63,-79.71 404.43,-95.97 413.41,-113.27"/>
    </edge>
    <edge id=":42_5" function="internal">
        <lane id=":42_5_0" index="0" disallow="pedestrian tram rail_urban rail rail_electric rail_fast ship" speed="12.25" length="34.24" width="3.50" shape="395.63,-79.71 396.95,-81.90 398.44,-84.00 400.15,-85.98 402.10,-87.77 404.28,-89.27 405.51,-89.93 406.76,-90.46 408.06,-90.89 409.38,-91.20 410.73,-91.40 412.08,-91.49 413.45,-91.47 416.06,-91.16 418.60,-90.54 421.06,-89.68 424.49,-88.08"/>
    </edge>
    <edge id=":43_0" function="internal">
        <lane id=":43_0_0" index="0" disallow="pedestrian tram rail_urban rail rail_electric rail_fast ship" speed="11.17" length="29.11" width="3.50" shape="402.40,-47.48 399.24,-49.04 397.12,-49.84 394.94,-50.41 392.72,-50.69 391.66,-50.71 390.59,-50.64 389.53,-50.47 388.50,-50.22 387.49,-49.87 386.51,-49.43 385.57,-48.90 384.69,-48.31 382.98,-46.86 381.47,-45.20 380.12,-43.38 378.31,-40.35"/>
    </edge>
    <edge id=":43_1" function="internal">
        <lane id=":43_1_0" index="0" disallow="pedestrian tram rail_urban rail rail_electric rail_fast ship" speed="12.28" length="34.58" width="3.50" shape="402.40,-47.48 399.00,-49.62 396.90,-51.25 394.97,-53.08 393.28,-55.13 392.54,-56.23 391.90,-57.40 391.35,-58.61 390.90,-59.86 390.57,-61.15 390.35,-62.46 390.24,-63.78 390.24,-65.11 390.54,-67.75 391.17,-70.33 392.07,-72.84 393.19,-75.25 393.81,-76.42"/>
    </edge>
    <edge id=":43_2" function="internal">
        <lane id=":43_2_0" index="0" disallow="pedestrian tram rail_urban rail rail_electric rail_fast ship" speed="11.29" length="29.05" width="3.50" shape="396.88,-74.74 396.34,-73.72 395.36,-71.62 394.59,-69.48 394.06,-67.31 393.82,-65.09 393.82,-64.04 393.91,-62.97 394.09,-61.91 394.36,-60.88 394.72,-59.87 395.16,-58.89 395.69,-57.95 396.28,-57.07 397.71,-55.34 399.34,-53.79 401.14,-52.40 404.12,-50.53"/>
    </edge>
    <edge id=":43_3" function="internal">
        <lane id=":43_3_0" index="0" disallow="pedestrian tram rail_urban rail rail_electric rail_fast ship" speed="36.11" length="39.08" width="3.50" shape="396.88,-74.74 384.11,-51.26 378.31,-40.35"/>
    </edge>
    <edge id=":43_4" function="internal">
        <lane id=":43_4_0" index="0" disallow="pedestrian tram rail_urban rail rail_electric rail_fast ship" speed="36.11" length="39.14" width="3.50" shape="375.22,-41.98 381.03,-52.92 393.81,-76.42"/>
    </edge>
    <edge id=":43_5" function="internal">
        <lane id=":43_5_0" index="0" disallow="pedestrian tram rail_urban rail rail_electric rail_fast ship" speed="12.17" length="34.80" width="3.50" shape="375.22,-41.98 377.28,-45.45 378.87,-47.60 380.68,-49.57 382.72,-51.30 383.82,-52.04 384.99,-52.70 386.21,-53.25 387.47,-53.68 388.77,-54.00 390.09,-54.21 391.42,-54.29 392.76,-54.27 395.41,-53.93 397.99,-53.26 400.50,-52.32 404.12,-50.53"/>
    </edge>
    <edge id=":44_0" function="internal">
        <lane id=":44_0_0" index="0" disallow="pedestrian tram rail_urban rail rail_electric rail_fast ship" speed="36.11" length="38.78" width="3.50" shape="389.17,-179.25 368.59,-189.67 354.69,-196.99"/>
    </edge>
    <edge id=":44_1" function="internal">
        <lane id=":44_1_0" index="0" disallow="pedestrian tram rail_urban rail rail_electric rail_fast ship" speed="12.46" length="33.89" width="3.50" shape="389.17,-179.25 386.87,-180.51 384.72,-181.97 382.74,-183.67 381.02,-185.62 380.27,-186.68 379.61,-187.80 379.04,-188.97 378.58,-190.19 378.21,-191.44 377.78,-194.01 377.72,-196.61 377.97,-199.20 378.47,-201.75 379.61,-205.49 380.57,-207.94"/>
    </edge>
    <edge id=":44_2" function="internal">
        <lane id=":44_2_0" index="0" disallow="pedestrian tram rail_urban rail rail_electric rail_fast ship" speed="11.48" length="28.58" width="3.50" shape="383.81,-206.60 382.94,-204.42 381.94,-201.13 381.50,-198.95 381.28,-196.76 381.31,-194.59 381.65,-192.45 381.93,-191.47 382.30,-190.48 382.75,-189.53 383.27,-188.62 383.85,-187.77 385.28,-186.14 386.92,-184.72 388.75,-183.47 390.74,-182.38"/>
    </edge>
    <edge id=":44_3" function="internal">
        <lane id=":44_3_0" index="0" disallow="pedestrian tram rail_urban rail rail_electric rail_fast ship" speed="12.04" length="35.97" width="3.50" shape="383.81,-206.60 382.03,-202.95 380.62,-200.70 378.99,-198.60 377.10,-196.73 376.05,-195.91 374.93,-195.18 373.76,-194.56 372.53,-194.05 371.26,-193.66 369.96,-193.39 368.64,-193.23 367.31,-193.19 364.66,-193.41 362.06,-193.96 359.53,-194.77 355.87,-196.38 354.69,-196.99"/>
    </edge>
    <edge id=":44_4" function="internal">
        <lane id=":44_4_0" index="0" disallow="pedestrian tram rail_urban rail rail_electric rail_fast ship" speed="11.03" length="30.01" width="3.50" shape="356.34,-200.08 357.36,-199.55 360.57,-198.14 362.72,-197.44 364.90,-196.97 367.12,-196.79 368.16,-196.82 369.22,-196.94 370.26,-197.15 371.27,-197.46 372.24,-197.86 373.17,-198.35 374.06,-198.93 374.89,-199.57 376.47,-201.12 377.84,-202.88 379.04,-204.79 380.57,-207.94"/>
    </edge>
    <edge id=":44_5" function="internal">
        <lane id=":44_5_0" index="0" disallow="pedestrian tram rail_urban rail rail_electric rail_fast ship" speed="36.11" length="38.69" width="3.50" shape="356.34,-200.08 370.20,-192.77 390.74,-182.38"/>
    </edge>

    <edge id="84554" from="43" to="33" priority="3" type="highway.residential" spreadType="center" length="70.00" shape="393.29,-54.35 345.69,21.58">
        <lane id="84554_0" index="0" disallow="pedestrian tram rail_urban rail rail_electric rail_fast ship" speed="36.11" length="70.00" width="3.50" customShape="1" shape="378.31,-40.35 356.15,1.73 345.69,21.58"/>
    </edge>
    <edge id="84555" from="40" to="43" priority="3" type="highway.residential" spreadType="center" length="70.00" shape="342.60,19.92 390.33,-56.21">
        <lane id="84555_0" index="0" disallow="pedestrian tram rail_urban rail rail_electric rail_fast ship" speed="36.11" length="70.00" width="3.50" customShape="1" shape="342.60,19.92 353.05,0.10 375.23,-42.01"/>
    </edge>
    <edge id="84557" from="42" to="43" priority="3" type="highway.residential" spreadType="center" length="3.76" shape="413.47,-91.80 393.30,-54.36">
        <lane id="84557_0" index="0" disallow="pedestrian tram rail_urban rail rail_electric rail_fast ship" speed="36.11" length="3.76" width="3.50" customShape="1" shape="398.69,-78.02 397.78,-76.37 396.87,-74.73"/>
    </edge>
    <edge id="84558" from="43" to="42" priority="3" type="highway.residential" spreadType="center" length="3.78" shape="390.22,-56.02 410.39,-93.46">
        <lane id="84558_0" index="0" disallow="pedestrian tram rail_urban rail rail_electric rail_fast ship" speed="36.11" length="3.78" width="3.50" customShape="1" shape="393.81,-76.42 394.72,-78.07 395.64,-79.73"/>
    </edge>
    <edge id="84560" from="41" to="42" priority="3" type="highway.residential" spreadType="center" length="31.57" shape="438.08,-158.69 413.56,-91.99">
        <lane id="84560_0" index="0" disallow="pedestrian tram rail_urban rail rail_electric rail_fast ship" speed="36.11" length="31.57" width="3.50" customShape="1" shape="430.72,-139.90 423.63,-125.81 416.53,-111.70"/>
    </edge>
    <edge id="84561" from="42" to="41" priority="3" type="highway.residential" spreadType="center" length="31.58" shape="410.28,-93.20 434.80,-159.90">
        <lane id="84561_0" index="0" disallow="pedestrian tram rail_urban rail rail_electric rail_fast ship" speed="36.11" length="31.58" width="3.50" customShape="1" shape="413.41,-113.27 420.51,-127.38 427.60,-141.48"/>
    </edge>
    <edge id="84563" from="36" to="41" priority="3" type="highway.residential" spreadType="center" length="70.00" shape="460.66,-245.01 438.12,-158.82">
        <lane id="84563_0" index="0" disallow="pedestrian tram rail_urban rail rail_electric rail_fast ship" speed="36.11" length="70.00" width="3.50" customShape="1" shape="460.66,-245.01 460.52,-243.34 458.95,-229.36 457.85,-222.42 456.48,-216.04 453.99,-206.30 450.74,-195.22 444.83,-177.05"/>
    </edge>
    <edge id="84564" from="41" to="18" priority="3" type="highway.residential" spreadType="center" length="70.00" shape="434.74,-159.70 457.24,-246.12">
        <lane id="84564_0" index="0" disallow="pedestrian tram rail_urban rail rail_electric rail_fast ship" speed="36.11" length="70.00" width="3.50" customShape="1" shape="441.51,-178.15 447.40,-196.28 450.64,-207.30 453.11,-216.97 454.45,-223.27 455.52,-230.13 457.07,-244.03 457.24,-246.12"/>
    </edge>
    <edge id="84619" from="41" to="15" priority="3" type="highway.residential" spreadType="center" length="67.09" shape="437.06,-160.93 517.74,-128.22">
        <lane id="84619_0" index="0" disallow="pedestrian tram rail_urban rail rail_electric rail_fast ship" speed="36.11" length="67.09" width="3.50" customShape="1" shape="455.74,-153.83 459.51,-152.40 475.91,-145.85 517.74,-128.22"/>
    </edge>
    <edge id="84620" from="32" to="41" priority="3" type="highway.residential" spreadType="center" length="66.97" shape="516.39,-124.99 435.75,-157.69">
        <lane id="84620_0" index="0" disallow="pedestrian tram rail_urban rail rail_electric rail_fast ship" speed="36.11" length="66.97" width="3.50" customShape="1" shape="516.39,-124.99 474.61,-142.60 458.26,-149.14 454.50,-150.56"/>
    </edge>
    <edge id="84649" from="43" to="28" priority="3" type="highway.residential" spreadType="center" length="70.00" shape="392.61,-56.80 465.15,-16.24">
        <lane id="84649_0" index="0" disallow="pedestrian tram rail_urban rail rail_electric rail_fast ship" speed="36.11" length="70.00" width="3.50" customShape="1" shape="404.12,-50.53 445.52,-27.27 465.15,-16.24"/>
    </edge>
    <edge id="84650" from="37" to="43" priority="3" type="highway.residential" spreadType="center" length="70.00" shape="463.43,-13.19 390.91,-53.74">
        <lane id="84650_0" index="0" disallow="pedestrian tram rail_urban rail rail_electric rail_fast ship" speed="36.11" length="70.00" width="3.50" customShape="1" shape="463.43,-13.19 443.81,-24.21 402.40,-47.48"/>
    </edge>
    <edge id="84759" from="44" to="30" priority="3" type="highway.residential" spreadType="center" length="70.00" shape="375.38,-193.86 290.31,-221.13">
        <lane id="84759_0" index="0" disallow="pedestrian tram rail_urban rail rail_electric rail_fast ship" speed="36.11" length="70.00" width="3.50" customShape="1" shape="354.69,-196.99 345.02,-202.21 330.44,-209.93 325.17,-212.79 319.08,-216.23 315.46,-217.93 312.17,-219.11 308.78,-219.95 304.83,-220.57 299.85,-220.95 292.35,-221.08 290.31,-221.13"/>
    </edge>
    <edge id="84760" from="39" to="44" priority="3" type="highway.residential" spreadType="center" length="70.02" shape="292.02,-224.59 376.45,-197.19">
        <lane id="84760_0" index="0" disallow="pedestrian tram rail_urban rail rail_electric rail_fast ship" speed="36.11" length="70.02" width="3.50" customShape="1" shape="292.02,-224.59 292.71,-224.57 300.31,-224.43 305.45,-224.02 309.57,-223.36 313.14,-222.47 316.63,-221.24 320.42,-219.47 326.62,-216.00 331.90,-213.12 346.59,-205.33 356.35,-200.07"/>
    </edge>
    <edge id="84762" from="41" to="44" priority="3" type="highway.residential" spreadType="center" length="31.73" shape="435.54,-157.80 374.94,-194.05">
        <lane id="84762_0" index="0" disallow="pedestrian tram rail_urban rail rail_electric rail_fast ship" speed="36.11" length="31.73" width="3.50" customShape="1" shape="417.55,-165.12 416.13,-165.80 389.15,-179.26"/>
    </edge>
    <edge id="84763" from="44" to="41" priority="3" type="highway.residential" spreadType="center" length="31.64" shape="376.74,-197.06 437.34,-160.80">
        <lane id="84763_0" index="0" disallow="pedestrian tram rail_urban rail rail_electric rail_fast ship" speed="36.11" length="31.64" width="3.50" customShape="1" shape="390.74,-182.38 417.66,-168.95 419.06,-168.28"/>
    </edge>
    <edge id="84783" from="42" to="13" priority="3" type="highway.residential" spreadType="center" length="70.00" shape="412.78,-94.17 484.82,-52.67">
        <lane id="84783_0" index="0" disallow="pedestrian tram rail_urban rail rail_electric rail_fast ship" speed="36.11" length="70.00" width="3.50" customShape="1" shape="424.49,-88.08 443.54,-77.88 457.10,-70.26 464.85,-65.62 477.82,-57.04 484.63,-52.78 484.82,-52.67"/>
    </edge>
    <edge id="84784" from="23" to="42" priority="3" type="highway.residential" spreadType="center" length="70.01" shape="483.17,-49.58 411.03,-91.14">
        <lane id="84784_0" index="0" disallow="pedestrian tram rail_urban rail rail_electric rail_fast ship" speed="36.11" length="70.01" width="3.50" customShape="1" shape="483.17,-49.58 482.93,-49.72 476.06,-54.01 463.10,-62.59 455.41,-67.19 441.88,-74.80 422.83,-85.00"/>
    </edge>
    <edge id="84789" from="44" to="31" priority="3" type="highway.residential" spreadType="center" length="70.00" shape="374.14,-195.70 383.57,-277.36">
        <lane id="84789_0" index="0" disallow="pedestrian tram rail_urban rail rail_electric rail_fast ship" speed="36.11" length="70.00" width="3.50" customShape="1" shape="380.57,-207.94 380.94,-208.84 382.08,-212.16 383.01,-216.07 384.08,-222.00 384.86,-228.48 385.28,-234.99 385.38,-242.53 385.11,-251.56 383.61,-276.12 383.57,-277.36"/>
    </edge>
    <edge id="84790" from="38" to="44" priority="3" type="highway.residential" spreadType="center" length="70.00" shape="387.12,-275.94 377.61,-195.29">
        <lane id="84790_0" index="0" disallow="pedestrian tram rail_urban rail rail_electric rail_fast ship" speed="36.11" length="70.00" width="3.50" customShape="1" shape="387.12,-275.94 388.63,-251.26 388.88,-242.09 388.76,-234.42 388.31,-227.77 387.49,-221.14 386.38,-215.07 385.39,-211.01 384.19,-207.54 383.79,-206.56"/>
    </edge>

    <junction id="13" type="dead_end" x="484.82" y="-52.67" incLanes="84783_0" intLanes="" shape="485.67,-54.20 483.97,-51.14" rightOfWay="edgePriority"/>
    <junction id="15" type="dead_end" x="517.74" y="-128.22" incLanes="84619_0" intLanes="" shape="518.42,-129.83 517.06,-126.60" rightOfWay="edgePriority"/>
    <junction id="18" type="dead_end" x="457.24" y="-246.12" incLanes="84564_0" intLanes="" shape="455.50,-246.26 458.98,-245.98" rightOfWay="edgePriority"/>
    <junction id="23" type="dead_end" x="483.17" y="-49.58" incLanes="" intLanes="" shape="484.02,-51.11 482.33,-48.05" rightOfWay="edgePriority"/>
    <junction id="28" type="dead_end" x="465.15" y="-16.24" incLanes="84649_0" intLanes="" shape="466.00,-17.77 464.29,-14.71" rightOfWay="edgePriority"/>
    <junction id="30" type="dead_end" x="290.31" y="-221.13" incLanes="84759_0" intLanes="" shape="290.27,-219.38 290.35,-222.87" rightOfWay="edgePriority"/>
    <junction id="31" type="dead_end" x="383.57" y="-277.36" incLanes="84789_0" intLanes="" shape="381.82,-277.30 385.32,-277.42" rightOfWay="edgePriority"/>
    <junction id="32" type="dead_end" x="516.39" y="-124.99" incLanes="" intLanes="" shape="517.07,-126.60 515.71,-123.38" rightOfWay="edgePriority"/>
    <junction id="33" type="dead_end" x="345.69" y="21.58" incLanes="84554_0" intLanes="" shape="347.23,22.40 344.14,20.77" rightOfWay="edgePriority"/>
    <junction id="36" type="dead_end" x="460.66" y="-245.01" incLanes="" intLanes="" shape="458.91,-245.15 462.40,-244.86" rightOfWay="edgePriority"/>
    <junction id="37" type="dead_end" x="463.43" y="-13.19" incLanes="" intLanes="" shape="464.29,-14.71 462.57,-11.66" rightOfWay="edgePriority"/>
    <junction id="38" type="dead_end" x="387.12" y="-275.94" incLanes="" intLanes="" shape="385.38,-275.84 388.87,-276.05" rightOfWay="edgePriority"/>
    <junction id="39" type="dead_end" x="292.02" y="-224.59" incLanes="" intLanes="" shape="291.98,-222.84 292.06,-226.34" rightOfWay="edgePriority"/>
    <junction id="40" type="dead_end" x="342.60" y="19.92" incLanes="" intLanes="" shape="344.15,20.74 341.06,19.11" rightOfWay="edgePriority"/>
    <junction id="41" type="priority" x="436.44" y="-159.30" incLanes="84620_0 84563_0 84763_0 84561_0" intLanes=":41_0_0 :41_1_0 :41_2_0 :41_3_0 :41_4_0 :41_5_0 :41_6_0 :41_7_0 :41_8_0 :41_9_0 :41_10_0 :41_11_0" shape="453.88,-148.92 456.36,-155.47 451.95,-157.61 448.65,-160.31 446.46,-163.54 445.37,-167.33 445.38,-171.65 446.50,-176.53 439.85,-178.69 437.85,-174.02 435.32,-170.62 432.25,-168.51 428.64,-167.68 424.50,-168.13 419.82,-169.86 416.80,-163.54 421.52,-160.82 424.97,-157.76 427.15,-154.38 428.05,-150.67 427.68,-146.63 426.04,-142.26 432.29,-139.12 435.00,-143.58 438.06,-146.91 441.48,-149.11 445.26,-150.18 449.39,-150.12">
        <request index="0" response="000000010000" foes="000100010000" cont="0"/>
        <request index="1" response="111000110000" foes="111100110000" cont="0"/>
        <request index="2" response="110011110000" foes="110011110000" cont="0"/>
        <request index="3" response="000000000000" foes="100010000000" cont="0"/>
        <request index="4" response="000000000000" foes="100110000111" cont="0"/>
        <request index="5" response="011000000000" foes="011110000110" cont="0"/>
        <request index="6" response="010000000000" foes="010000000100" cont="0"/>
        <request index="7" response="110000111000" foes="110000111100" cont="0"/>
        <request index="8" response="110000110011" foes="110000110011" cont="0"/>
        <request index="9" response="000000000000" foes="000000100010" cont="0"/>
        <request index="10" response="000000000000" foes="000111100110" cont="0"/>