<routes>
	<vehicle depart="0.1" departLane="0" departPos="1.0" departSpeed="2.5374726" id="318" type="bicycle">
		<route edges="68028 66738"/>
	</vehicle>
	<vehicle depart="0.1" departLane="0" departPos="97.8262433493043" departSpeed="4.2751351" id="331" type="bus">
		<route edges=":21_3 67471"/>
	</vehicle>
	<vehicle depart="0.1" departLane="0" departPos="9.34211215970759" departSpeed="6.7006817" id="37" type="passenger">
		<route edges=":23_1 66738"/>
	</vehicle>
	<vehicle depart="0.1" departLane="0" departPos="12.631750925617782" departSpeed="4.6352087" id="312" type="passenger">
		<route edges="68028 66738"/>
	</vehicle>
	<vehicle depart="0.1" departLane="0" departPos="71.14073481744104" departSpeed="1.4682003" id="315" type="passenger">
		<route edges="66737 68026"/>
	</vehicle>
	<vehicle depart="0.1" departLane="0" departPos="115.88411933847992" departSpeed="1.7242218" id="328" type="passenger">
		<route edges=":21_3 67471"/>
	</vehicle>
	<vehicle depart="0.1" departLane="0" departPos="7.052174545145627" departSpeed="0.14367833" id="31" type="truck">
		<route edges="67905 67472"/>
	</vehicle>
	<vehicle depart="0.1" departLane="0" departPos="127.33693560196177" departSpeed="0.55352921" id="323" type="truck">
		<route edges=":21_3 67471"/>
	</vehicle>
</routes>
