<!-- generated on Tue Feb  9 22:21:15 2021 by Eclipse SUMO netconvert Version 1.8.0
<configuration xmlns:xsi="http://www.w3.org/2001/XMLSchema-instance" xsi:noNamespaceSchemaLocation="http://sumo.dlr.de/xsd/netconvertConfiguration.xsd">

    <input>
        <node-files value="./converted_scenarios/scenario-factory/DEU_Guetersloh-12_1_I-1-1/DEU_Guetersloh-12_1_I-1-1.nod.xml"/>
        <edge-files value="./converted_scenarios/scenario-factory/DEU_Guetersloh-12_1_I-1-1/DEU_Guetersloh-12_1_I-1-1.edg.xml"/>
        <connection-files value="./converted_scenarios/scenario-factory/DEU_Guetersloh-12_1_I-1-1/DEU_Guetersloh-12_1_I-1-1.con.xml"/>
        <tllogic-files value="./converted_scenarios/scenario-factory/DEU_Guetersloh-12_1_I-1-1/DEU_Guetersloh-12_1_I-1-1.tll.xml"/>
        <type-files value="/home/zen/commonroad-interactive-benchmarks/install/commonroad-map-tool/crmapconverter/sumo_map/templates/DEU.typ.xml"/>
    </input>

    <output>
        <output-file value="./converted_scenarios/scenario-factory/DEU_Guetersloh-12_1_I-1-1/DEU_Guetersloh-12_1_I-1-1.net.xml"/>
    </output>

    <processing>
        <geometry.remove.keep-edges.explicit value="true"/>
        <geometry.avoid-overlap value="true"/>
        <offset.disable-normalization value="true"/>
    </processing>

    <junctions>
        <no-turnarounds value="true"/>
        <junctions.internal-link-detail value="20"/>
    </junctions>

    <report>
        <aggregate-warnings value="5"/>
    </report>

    <random_number>
        <seed value="1234"/>
    </random_number>

</configuration>
--><net xmlns:xsi="http://www.w3.org/2001/XMLSchema-instance" version="1.6" junctionCornerDetail="5" junctionLinkDetail="20" limitTurnSpeed="5.50" xsi:noNamespaceSchemaLocation="http://sumo.dlr.de/xsd/net_file.xsd">

    <location netOffset="0.00,0.00" convBoundary="472.66,347.95,672.59,517.05" origBoundary="472.66,347.95,672.59,517.05" projParameter="!"/>

    <type id="highway.bridleway" priority="1" speed="2.78" allow="pedestrian" oneway="1" width="2.00"/>
    <type id="highway.bus_guideway" priority="1" speed="27.78" allow="bus" oneway="1"/>
    <type id="highway.cycleway" priority="1" speed="8.33" allow="bicycle" oneway="0" width="1.00"/>
    <type id="highway.footway" priority="1" speed="2.78" allow="pedestrian" oneway="1" width="2.00"/>
    <type id="highway.ford" priority="1" speed="2.78" allow="army" oneway="0"/>
    <type id="highway.living_street" priority="2" speed="2.78" disallow="tram rail_urban rail rail_electric rail_fast ship" oneway="0"/>
    <type id="highway.motorway" priority="14" speed="39.44" allow="private emergency authority army vip passenger hov taxi bus coach delivery truck trailer motorcycle evehicle custom1 custom2" oneway="1"/>
    <type id="highway.motorway_link" priority="9" speed="22.22" allow="private emergency authority army vip passenger hov taxi bus coach delivery truck trailer motorcycle evehicle custom1 custom2" oneway="1"/>
    <type id="highway.path" priority="1" speed="2.78" allow="pedestrian bicycle" oneway="0" width="2.00"/>
    <type id="highway.pedestrian" priority="1" speed="2.78" allow="pedestrian" oneway="1" width="2.00"/>
    <type id="highway.primary" priority="12" speed="27.78" disallow="pedestrian tram rail_urban rail rail_electric rail_fast ship" oneway="0"/>
    <type id="highway.primary_link" priority="7" speed="22.22" disallow="pedestrian tram rail_urban rail rail_electric rail_fast ship" oneway="0"/>
    <type id="highway.raceway" priority="15" speed="83.33" allow="vip" oneway="0"/>
    <type id="highway.residential" priority="3" speed="13.89" disallow="pedestrian tram rail_urban rail rail_electric rail_fast ship" oneway="0"/>
    <type id="highway.secondary" priority="11" speed="27.78" disallow="pedestrian tram rail_urban rail rail_electric rail_fast ship" oneway="0"/>
    <type id="highway.secondary_link" priority="6" speed="22.22" disallow="pedestrian tram rail_urban rail rail_electric rail_fast ship" oneway="0"/>
    <type id="highway.service" priority="1" speed="5.56" allow="pedestrian delivery bicycle" oneway="0"/>
    <type id="highway.stairs" priority="1" speed="1.39" allow="pedestrian" oneway="1" width="2.00"/>
    <type id="highway.step" priority="1" speed="1.39" allow="pedestrian" oneway="1" width="2.00"/>
    <type id="highway.steps" priority="1" speed="1.39" allow="pedestrian" oneway="1" width="2.00"/>
    <type id="highway.tertiary" priority="10" speed="22.22" disallow="pedestrian tram rail_urban rail rail_electric rail_fast ship" oneway="0"/>
    <type id="highway.tertiary_link" priority="5" speed="22.22" disallow="pedestrian tram rail_urban rail rail_electric rail_fast ship" oneway="0"/>
    <type id="highway.track" priority="1" speed="5.56" allow="pedestrian motorcycle moped bicycle" oneway="0"/>
    <type id="highway.trunk" priority="13" speed="27.78" disallow="pedestrian bicycle tram rail_urban rail rail_electric rail_fast ship" oneway="0"/>
    <type id="highway.trunk_link" priority="8" speed="22.22" disallow="pedestrian bicycle tram rail_urban rail rail_electric rail_fast ship" oneway="0"/>
    <type id="highway.unclassified" priority="4" speed="13.89" disallow="pedestrian tram rail_urban rail rail_electric rail_fast ship" oneway="0"/>
    <type id="highway.unsurfaced" priority="1" speed="8.33" disallow="tram rail_urban rail rail_electric rail_fast ship" oneway="0"/>
    <type id="railway.highspeed" priority="21" speed="69.44" allow="rail_fast" oneway="1"/>
    <type id="railway.light_rail" priority="19" speed="27.78" allow="rail_urban" oneway="1"/>
    <type id="railway.preserved" priority="16" speed="27.78" allow="rail" oneway="1"/>
    <type id="railway.rail" priority="20" speed="44.44" allow="rail" oneway="1"/>
    <type id="railway.subway" priority="18" speed="27.78" allow="rail_urban" oneway="1"/>
    <type id="railway.tram" priority="17" speed="13.89" allow="tram" oneway="1"/>

    <edge id=":19_0" function="internal">
        <lane id=":19_0_0" index="0" disallow="pedestrian tram rail_urban rail rail_electric rail_fast ship" speed="36.11" length="2.99" width="3.47" shape="617.05,452.26 617.05,449.27"/>
    </edge>
    <edge id=":21_0" function="internal">
        <lane id=":21_0_0" index="0" disallow="pedestrian tram rail_urban rail rail_electric rail_fast ship" speed="36.11" length="49.41" width="3.50" shape="609.64,437.72 560.25,439.11"/>
    </edge>
    <edge id=":21_1" function="internal">
        <lane id=":21_1_0" index="0" disallow="pedestrian tram rail_urban rail rail_electric rail_fast ship" speed="36.11" length="53.59" width="3.50" shape="609.64,437.72 556.06,438.84"/>
    </edge>
    <edge id=":21_2" function="internal">
        <lane id=":21_2_0" index="0" disallow="pedestrian tram rail_urban rail rail_electric rail_fast ship" speed="36.11" length="56.27" width="3.50" shape="609.64,437.72 553.38,438.66"/>
    </edge>
    <edge id=":21_3" function="internal">
        <lane id=":21_3_0" index="0" disallow="pedestrian tram rail_urban rail rail_electric rail_fast ship" speed="36.11" length="125.56" width="3.49" shape="484.84,434.18 507.52,433.98 610.40,434.22"/>
    </edge>
    <edge id=":23_0" function="internal">
        <lane id=":23_0_0" index="0" disallow="pedestrian tram rail_urban rail rail_electric rail_fast ship" speed="36.11" length="28.47" width="3.49" shape="638.27,439.04 632.95,438.98 624.47,438.43 615.98,437.84 609.84,437.72"/>
    </edge>
    <edge id=":23_1" function="internal">
        <lane id=":23_1_0" index="0" disallow="pedestrian tram rail_urban rail rail_electric rail_fast ship" speed="12.59" length="38.35" width="3.50" shape="638.27,439.04 634.73,438.96 631.80,438.62 628.92,437.98 626.69,437.21 624.56,436.18 622.61,434.86 620.86,433.27 619.39,431.43 618.19,429.40 617.26,427.23 616.45,424.39 615.98,421.48 615.75,417.95 615.80,415.00"/>
    </edge>
    <edge id=":23_2" function="internal">
        <lane id=":23_2_0" index="0" disallow="pedestrian tram rail_urban rail rail_electric rail_fast ship" speed="11.09" length="29.45" width="3.50" shape="619.29,415.15 619.31,418.11 619.60,420.44 620.18,422.72 620.85,424.36 621.74,425.88 622.85,427.26 624.14,428.46 625.60,429.46 627.71,430.50 629.95,431.22 632.85,431.78 636.37,432.04 638.14,432.05"/>
    </edge>
    <edge id=":23_3" function="internal">
        <lane id=":23_3_0" index="0" disallow="pedestrian tram rail_urban rail rail_electric rail_fast ship" speed="11.03" length="26.74" width="3.49" shape="619.29,415.15 618.84,421.31 618.16,426.20 617.34,429.81 616.57,432.16 615.51,434.38 614.83,435.41 614.01,436.33 613.02,437.07 611.89,437.55 609.84,437.72"/>
    </edge>
    <edge id=":23_4" function="internal">
        <lane id=":23_4_0" index="0" disallow="pedestrian tram rail_urban rail rail_electric rail_fast ship" speed="9.69" length="21.41" width="3.50" shape="609.94,434.19 611.05,434.22 611.62,433.88 612.14,433.32 612.61,432.60 613.03,431.80 613.75,429.90 614.29,427.91 614.89,424.76 615.42,420.45 615.80,415.00"/>
    </edge>
    <edge id=":23_5" function="internal">
        <lane id=":23_5_0" index="0" disallow="pedestrian tram rail_urban rail rail_electric rail_fast ship" speed="36.11" length="28.29" width="3.50" shape="609.94,434.19 616.27,433.99 624.40,433.18 633.04,432.29 638.14,432.05"/>
        <lane id=":23_5_1" index="1" disallow="pedestrian tram rail_urban rail rail_electric rail_fast ship" speed="36.11" length="28.33" width="3.50" shape="609.94,434.19 616.05,434.34 624.57,434.93 632.99,435.49 638.23,435.54"/>
    </edge>
    <edge id=":23_7" function="internal">
        <lane id=":23_7_0" index="0" disallow="pedestrian tram rail_urban rail rail_electric rail_fast ship" speed="7.80" length="13.42" width="3.49" shape="617.06,445.11 616.94,439.15 616.54,438.70 616.02,438.40 614.87,438.04 612.48,437.75 609.84,437.72"/>
    </edge>
    <edge id=":23_8" function="internal">
        <lane id=":23_8_0" index="0" disallow="pedestrian tram rail_urban rail rail_electric rail_fast ship" speed="36.11" length="30.16" width="3.50" shape="617.06,445.11 617.02,435.17 616.40,427.61 615.82,420.56 615.76,416.01 615.80,415.00"/>
    </edge>
    <edge id=":23_9" function="internal">
        <lane id=":23_9_0" index="0" disallow="pedestrian tram rail_urban rail rail_electric rail_fast ship" speed="11.44" length="29.50" width="3.50" shape="617.06,445.11 617.24,438.64 617.64,437.62 618.27,436.73 619.50,435.63 620.92,434.80 622.95,433.98 626.13,433.15 629.93,432.55 635.40,432.13 638.14,432.05"/>
    </edge>

    <edge id="66737" from="16" to="23" priority="3" type="highway.residential" spreadType="center" length="70.01" shape="609.22,347.95 623.13,430.16">
        <lane id="66737_0" index="0" disallow="pedestrian tram rail_urban rail rail_electric rail_fast ship" speed="36.11" length="70.01" width="3.50" customShape="1" shape="609.22,347.95 610.88,349.76 614.75,354.53 615.84,356.26 616.47,357.66 617.16,360.13 618.40,366.14 619.35,372.73 619.93,379.35 620.21,387.03 620.13,396.24 619.29,415.15"/>
    </edge>
    <edge id="66738" from="23" to="3" priority="3" type="highway.residential" spreadType="center" length="70.00" shape="619.69,430.76 604.78,348.30">
        <lane id="66738_0" index="0" disallow="pedestrian tram rail_urban rail rail_electric rail_fast ship" speed="36.11" length="70.00" width="3.50" customShape="1" shape="615.80,415.00 616.63,396.38 616.72,387.37 616.46,379.89 615.91,373.45 615.00,367.05 613.82,361.22 613.23,358.99 612.73,357.86 611.73,356.35 608.00,351.78 604.78,348.30"/>
    </edge>
    <edge id="67471" from="21" to="23" priority="3" type="highway.residential" spreadType="center" length="0.20" shape="566.42,433.65 621.30,428.67">
        <lane id="67471_0" index="0" disallow="pedestrian tram rail_urban rail rail_electric rail_fast ship" speed="36.11" length="0.20" width="3.49" customShape="1" shape="609.74,434.18 609.94,434.19"/>
    </edge>
    <edge id="67472" from="23" to="21" priority="3" type="highway.residential" spreadType="center" length="0.20" shape="621.62,432.15 566.74,437.13">
        <lane id="67472_0" index="0" disallow="pedestrian tram rail_urban rail rail_electric rail_fast ship" speed="36.11" length="0.20" width="3.49" customShape="1" shape="609.84,437.72 609.64,437.72"/>
    </edge>
    <edge id="67903" from="20" to="19" priority="3" type="highway.residential" spreadType="center" length="64.79">
        <lane id="67903_0" index="0" disallow="pedestrian tram rail_urban rail rail_electric rail_fast ship" speed="36.11" length="64.79" width="3.50" customShape="1" shape="617.38,517.05 617.21,483.91 617.05,452.26"/>
    </edge>
    <edge id="67905" from="19" to="23" priority="3" type="highway.residential" spreadType="center" length="4.16">
        <lane id="67905_0" index="0" disallow="pedestrian tram rail_urban rail rail_electric rail_fast ship" speed="36.11" length="4.16" width="3.47" customShape="1" shape="617.05,449.27 617.06,445.37 617.06,445.11"/>
    </edge>
    <edge id="67921" from="18" to="21" priority="3" type="highway.residential" spreadType="center" length="11.72" shape="472.66,434.33 566.60,433.64">
        <lane id="67921_0" index="0" disallow="pedestrian tram rail_urban rail rail_electric rail_fast ship" speed="36.11" length="11.72" width="3.50" customShape="1" shape="472.66,434.33 477.66,434.26 478.29,434.25 484.38,434.15"/>
    </edge>
    <edge id="68026" from="23" to="9" priority="3" type="highway.residential" spreadType="center" length="34.29" shape="621.59,426.92 672.46,433.16">
        <lane id="68026_0" index="0" disallow="pedestrian tram rail_urban rail rail_electric rail_fast ship" speed="36.11" length="34.30" width="3.50" customShape="1" shape="638.14,432.05 655.28,431.73 672.43,431.41"/>
        <lane id="68026_1" index="1" disallow="pedestrian tram rail_urban rail rail_electric rail_fast ship" speed="36.11" length="34.29" width="3.50" customShape="1" shape="638.21,435.55 655.35,435.23 672.49,434.91"/>
    </edge>
    <edge id="68028" from="17" to="23" priority="3" type="highway.residential" spreadType="center" length="34.33" shape="672.59,438.41 621.13,432.14">
        <lane id="68028_0" index="0" disallow="pedestrian tram rail_urban rail rail_electric rail_fast ship" speed="36.11" length="34.33" width="3.50" customShape="1" shape="672.59,438.41 655.41,438.73 638.27,439.04"/>
    </edge>
    <edge id="73913" from="21" to="22" priority="3" type="highway.residential" spreadType="center" length="12.95" shape="566.86,437.12 540.46,439.65">
        <lane id="73913_0" index="0" disallow="pedestrian tram rail_urban rail rail_electric rail_fast ship" speed="36.11" length="12.95" width="3.50" customShape="1" shape="553.38,438.66 548.06,438.75 540.43,438.87"/>
    </edge>
    <edge id="73917" from="21" to="22" priority="3" type="highway.residential" spreadType="center" length="15.63">
        <lane id="73917_0" index="0" disallow="pedestrian tram rail_urban rail rail_electric rail_fast ship" speed="36.11" length="15.63" width="3.50" customShape="1" shape="556.06,438.84 541.49,439.51 540.45,439.58"/>
    </edge>
    <edge id="73921" from="21" to="22" priority="3" type="highway.residential" spreadType="center" length="19.80">
        <lane id="73921_0" index="0" disallow="pedestrian tram rail_urban rail rail_electric rail_fast ship" speed="36.11" length="19.80" width="3.50" customShape="1" shape="560.25,439.11 552.83,439.51 540.50,440.49"/>
    </edge>

    <junction id="16" type="dead_end" x="609.22" y="347.95" incLanes="" intLanes="" shape="607.93,349.13 610.51,346.77" rightOfWay="edgePriority"/>
    <junction id="17" type="dead_end" x="672.59" y="438.41" incLanes="" intLanes="" shape="672.56,436.66 672.62,440.16" rightOfWay="edgePriority"/>
    <junction id="18" type="dead_end" x="472.66" y="434.33" incLanes="" intLanes="" shape="472.69,436.08 472.63,432.58" rightOfWay="edgePriority"/>
    <junction id="19" type="priority" x="617.04" y="450.76" incLanes="67903_0" intLanes=":19_0_0" shape="615.30,452.27 618.80,452.25 618.78,449.27 615.31,449.26" rightOfWay="edgePriority">
        <request index="0" response="0" foes="0" cont="0"/>
    </junction>
    <junction id="20" type="dead_end" x="617.38" y="517.05" incLanes="" intLanes="" shape="619.13,517.04 615.63,517.06" rightOfWay="edgePriority"/>
    <junction id="21" type="priority" x="566.58" y="435.39" incLanes="67472_0 67921_0" intLanes=":21_0_0 :21_1_0 :21_2_0 :21_3_0" shape="610.10,439.46 610.50,432.48 462.64,432.73 576.22,440.15">
        <request index="0" response="0000" foes="0000" cont="0"/>
        <request index="1" response="0000" foes="0000" cont="0"/>
        <request index="2" response="0000" foes="0000" cont="0"/>
        <request index="3" response="0000" foes="0000" cont="0"/>
    </junction>
    <junction id="22" type="dead_end" x="540.46" y="439.65" incLanes="73913_0 73921_0 73917_0" intLanes="" shape="540.48,440.62 540.42,437.12 540.67,442.24 540.39,438.75 540.58,441.32 540.33,437.83"/>
    <junction id="23" type="priority" x="621.40" y="430.41" incLanes="68028_0 66737_0 67471_0 67905_0" intLanes=":23_0_0 :23_1_0 :23_2_0 :23_3_0 :23_4_0 :23_5_0 :23_5_1 :23_7_0 :23_8_0 :23_9_0" shape="638.30,440.79 638.11,430.30 632.70,429.97 628.32,428.77 624.97,426.69 622.63,423.75 621.32,419.93 621.04,415.23 614.05,414.92 609.27,432.40 609.28,439.47 615.33,445.07 618.79,445.15 620.97,442.89 623.68,442.06 627.47,441.44 632.35,441.01">
        <request index="0" response="0000000000" foes="1110001000" cont="0"/>
        <request index="1" response="0001110000" foes="1101111000" cont="0"/>
        <request index="2" response="0001100000" foes="1001100000" cont="0"/>
        <request index="3" response="0111100011" foes="0111100011" cont="0"/>
        <request index="4" response="0000000000" foes="0100000010" cont="0"/>
        <request index="5" response="0000000000" foes="1100001110" cont="0"/>
        <request index="6" response="0000000000" foes="1100001110" cont="0"/>
        <request index="7" response="0000000001" foes="0000001001" cont="0"/>
        <request index="8" response="0001110011" foes="0001111011" cont="0"/>
        <request index="9" response="0001100111" foes="0001100111" cont="0"/>
    </junction>
    <junction id="3" type="dead_end" x="604.78" y="348.30" incLanes="66738_0" intLanes="" shape="603.50,349.48 606.07,347.11" rightOfWay="edgePriority"/>
    <junction id="9" type="dead_end" x="672.46" y="433.16" incLanes="68026_0 68026_1" intLanes="" shape="672.39,429.66 672.52,436.66" rightOfWay="edgePriority"/>

    <connection from="66737" to="68026" fromLane="0" toLane="0" contPos="-4.00" shape="619.29,415.15 619.31,418.11 619.60,420.44 620.18,422.72 620.85,424.36 621.74,425.88 622.85,427.26 624.14,428.46 625.60,429.46 627.71,430.50 629.95,431.22 632.85,431.78 636.37,432.04 638.14,432.05" via=":23_2_0" dir="r" state="m"/>
    <connection from="66737" to="67472" fromLane="0" toLane="0" contPos="-4.00" shape="619.29,415.15 618.84,421.31 618.16,426.20 617.34,429.81 616.57,432.16 615.51,434.38 614.83,435.41 614.01,436.33 613.02,437.07 611.89,437.55 610.67,437.72" via=":23_3_0" dir="l" state="m"/>
    <connection from="67471" to="66738" fromLane="0" toLane="0" contPos="-4.00" shape="610.57,434.23 611.05,434.22 611.62,433.88 612.14,433.32 612.61,432.60 613.03,431.80 613.75,429.90 614.29,427.91 614.89,424.76 615.42,420.45 615.80,415.00" via=":23_4_0" dir="r" state="M"/>
    <connection from="67471" to="68026" fromLane="0" toLane="0" contPos="-4.00" shape="610.57,434.23 616.27,433.99 624.40,433.18 633.04,432.29 638.14,432.05" via=":23_5_0" dir="s" state="M"/>
    <connection from="67471" to="68026" fromLane="0" toLane="1" contPos="-4.00" shape="610.57,434.23 616.05,434.34 624.57,434.93 632.99,435.49 638.23,435.54" via=":23_5_1" dir="s" state="M"/>
    <connection from="67472" to="73921" fromLane="0" toLane="0" contPos="-4.00" via=":21_0_0" dir="s" state="M"/>
    <connection from="67472" to="73917" fromLane="0" toLane="0" contPos="-4.00" via=":21_1_0" dir="s" state="M"/>
    <connection from="67472" to="73913" fromLane="0" toLane="0" contPos="-4.00" via=":21_2_0" dir="s" state="M"/>
    <connection from="67903" to="67905" fromLane="0" toLane="0" contPos="-4.00" via=":19_0_0" dir="s" state="M"/>
    <connection from="67905" to="67472" fromLane="0" toLane="0" contPos="-4.00" shape="617.09,439.72 616.94,439.15 616.54,438.70 616.02,438.40 614.87,438.04 612.48,437.75 610.67,437.72" via=":23_7_0" dir="r" state="m"/>
    <connection from="67905" to="66738" fromLane="0" toLane="0" contPos="-4.00" shape="617.09,439.72 617.02,435.17 616.40,427.61 615.82,420.56 615.76,416.01 615.80,415.00" via=":23_8_0" dir="s" state="m"/>
    <connection from="67905" to="68026" fromLane="0" toLane="0" contPos="-4.00" shape="617.09,439.72 617.24,438.64 617.64,437.62 618.27,436.73 619.50,435.63 620.92,434.80 622.95,433.98 626.13,433.15 629.93,432.55 635.40,432.13 638.14,432.05" via=":23_9_0" dir="l" state="m"/>
    <connection from="67921" to="67471" fromLane="0" toLane="0" contPos="-4.00" shape="478.91,434.24 507.52,433.98 610.40,434.22" via=":21_3_0" dir="s" state="M"/>
    <connection from="68028" to="67472" fromLane="0" toLane="0" contPos="-4.00" shape="638.27,439.04 632.95,438.98 624.47,438.43 615.98,437.84 610.67,437.72" via=":23_0_0" dir="s" state="M"/>
    <connection from="68028" to="66738" fromLane="0" toLane="0" contPos="-4.00" shape="638.27,439.04 634.73,438.96 631.80,438.62 628.92,437.98 626.69,437.21 624.56,436.18 622.61,434.86 620.86,433.27 619.39,431.43 618.19,429.40 617.26,427.23 616.45,424.39 615.98,421.48 615.75,417.95 615.80,415.00" via=":23_1_0" dir="l" state="m"/>

    <connection from=":19_0" to="67905" fromLane="0" toLane="0" dir="s" state="M"/>
    <connection from=":21_0" to="73921" fromLane="0" toLane="0" dir="s" state="M"/>
    <connection from=":21_1" to="73917" fromLane="0" toLane="0" dir="s" state="M"/>
    <connection from=":21_2" to="73913" fromLane="0" toLane="0" dir="s" state="M"/>
    <connection from=":21_3" to="67471" fromLane="0" toLane="0" dir="s" state="M"/>
    <connection from=":23_0" to="67472" fromLane="0" toLane="0" dir="s" state="M"/>
    <connection from=":23_1" to="66738" fromLane="0" toLane="0" dir="l" state="M"/>
    <connection from=":23_2" to="68026" fromLane="0" toLane="0" dir="r" state="M"/>
    <connection from=":23_3" to="67472" fromLane="0" toLane="0" dir="l" state="M"/>
    <connection from=":23_4" to="66738" fromLane="0" toLane="0" dir="r" state="M"/>
    <connection from=":23_5" to="68026" fromLane="0" toLane="0" dir="s" state="M"/>
    <connection from=":23_5" to="68026" fromLane="1" toLane="1" dir="s" state="M"/>
    <connection from=":23_7" to="67472" fromLane="0" toLane="0" dir="r" state="M"/>
    <connection from=":23_8" to="66738" fromLane="0" toLane="0" dir="s" state="M"/>
    <connection from=":23_9" to="68026" fromLane="0" toLane="0" dir="l" state="M"/>

</net>