<?xml version="1.0" encoding="UTF-8"?>

<!-- generated on Fri Dec 18 16:47:29 2020 by Eclipse SUMO netconvert Version 1.8.0
<configuration xmlns:xsi="http://www.w3.org/2001/XMLSchema-instance" xsi:noNamespaceSchemaLocation="http://sumo.dlr.de/xsd/netconvertConfiguration.xsd">

    <input>
        <node-files value="./converted_scenarios/SUMO/DEU_Muc-23_1_I-1-1/nodes.net.xml"/>
        <edge-files value="./converted_scenarios/SUMO/DEU_Muc-23_1_I-1-1/edges.net.xml"/>
        <connection-files value="./converted_scenarios/SUMO/DEU_Muc-23_1_I-1-1/_connections.net.xml"/>
        <tllogic-files value="./converted_scenarios/SUMO/DEU_Muc-23_1_I-1-1/_tll.net.xml"/>
    </input>

    <output>
        <output-file value="./converted_scenarios/SUMO/DEU_Muc-23_1_I-1-1/DEU_Muc-23_1_I-1-1.net.xml"/>
    </output>

    <processing>
        <plain.extend-edge-shape value="true"/>
        <geometry.remove.keep-edges.explicit value="true"/>
        <geometry.avoid-overlap value="true"/>
        <offset.disable-normalization value="true"/>
    </processing>

    <junctions>
        <no-turnarounds value="true"/>
        <junctions.internal-link-detail value="20"/>
    </junctions>

    <report>
        <aggregate-warnings value="5"/>
    </report>

    <random_number>
        <seed value="1234"/>
    </random_number>

</configuration>
-->

<net version="1.6" junctionCornerDetail="5" junctionLinkDetail="20" limitTurnSpeed="5.50" xmlns:xsi="http://www.w3.org/2001/XMLSchema-instance" xsi:noNamespaceSchemaLocation="http://sumo.dlr.de/xsd/net_file.xsd">

    <location netOffset="0.00,0.00" convBoundary="-93.16,2.18,37.16,239.48" origBoundary="-93.26,0.93,37.27,239.48" projParameter="!"/>

    <edge id=":1_0" function="internal">
        <lane id=":1_0_0" index="0" disallow="bus truck rail_fast" speed="6.95" length="9.93" width="2.50" shape="-17.71,12.94 -17.82,12.46 -17.96,12.01 -18.13,11.60 -18.34,11.21 -18.58,10.85 -18.86,10.52 -19.17,10.22 -19.52,9.95 -19.90,9.70 -20.32,9.49 -20.77,9.30 -21.26,9.15 -21.78,9.02 -22.34,8.92 -22.93,8.85 -23.56,8.81 -24.22,8.80 -24.92,8.81 -25.65,8.86"/>
    </edge>
    <edge id=":1_1" function="internal">
        <lane id=":1_1_0" index="0" disallow="rail_fast" speed="36.11" length="8.84" width="2.50" shape="-16.83,8.13 -25.65,8.86"/>
        <lane id=":1_1_1" index="1" disallow="rail_fast" speed="36.11" length="8.84" width="2.50" shape="-17.04,5.63 -25.85,6.37"/>
    </edge>
    <edge id=":3_0" function="internal">
        <lane id=":3_0_0" index="0" disallow="bus truck rail_fast" speed="36.11" length="2.71" width="2.50" shape="-14.94,13.12 -14.79,15.83"/>
    </edge>
    <edge id=":6_0" function="internal">
        <lane id=":6_0_0" index="0" disallow="bus truck rail_fast" speed="36.11" length="2.70" width="2.50" shape="-17.27,16.07 -17.64,13.39"/>
    </edge>
    <edge id=":8_0" function="internal">
        <lane id=":8_0_0" index="0" disallow="bus truck rail_fast" speed="6.94" length="10.08" width="2.50" shape="-7.58,7.34 -8.34,7.42 -9.07,7.52 -9.75,7.64 -10.39,7.79 -10.98,7.96 -11.54,8.14 -12.05,8.35 -12.52,8.59 -12.95,8.84 -13.34,9.12 -13.69,9.41 -13.99,9.73 -14.26,10.07 -14.48,10.44 -14.66,10.82 -14.79,11.23 -14.89,11.66 -14.94,12.11 -14.95,12.58"/>
    </edge>
    <edge id=":8_1" function="internal">
        <lane id=":8_1_0" index="0" disallow="rail_fast" speed="36.11" length="9.07" width="2.50" shape="-7.58,7.34 -16.63,8.11"/>
        <lane id=":8_1_1" index="1" disallow="rail_fast" speed="36.11" length="9.07" width="2.50" shape="-7.81,4.85 -16.84,5.62"/>
    </edge>

    <edge id="1346" from="1" to="2" priority="1" spreadType="center" length="69.67">
        <lane id="1346_0" index="0" disallow="rail_fast" speed="36.11" length="69.67" width="2.50" customShape="1" shape="-25.65,8.86 -58.33,11.50 -93.06,14.30"/>
        <lane id="1346_1" index="1" disallow="rail_fast" speed="36.11" length="69.67" width="2.50" customShape="1" shape="-25.85,6.37 -58.53,9.01 -93.26,11.81"/>
    </edge>
    <edge id="1347" from="3" to="4" priority="1" spreadType="center" length="225.72">
        <lane id="1347_0" index="0" disallow="rail_fast" speed="36.11" length="225.72" width="2.50" customShape="1" shape="-14.79,15.83 -0.83,161.27 5.33,239.28"/>
    </edge>
    <edge id="1348" from="5" to="6" priority="1" spreadType="center" length="225.67">
        <lane id="1348_0" index="0" disallow="rail_fast" speed="36.11" length="225.67" width="2.50" customShape="1" shape="2.83,239.48 -3.32,161.49 -17.27,16.07"/>
    </edge>
    <edge id="1350" from="7" to="8" priority="1" spreadType="center" length="47.06">
        <lane id="1350_0" index="0" disallow="rail_fast" speed="36.11" length="47.06" width="2.50" customShape="1" shape="37.27,3.42 13.82,5.47 -7.58,7.34"/>
        <lane id="1350_1" index="1" disallow="rail_fast" speed="36.11" length="47.06" width="2.50" customShape="1" shape="37.05,0.93 13.61,2.98 -7.81,4.85"/>
    </edge>
    <edge id="1351" from="6" to="1" priority="1" spreadType="center" length="9.85">
        <lane id="1351_0" index="0" disallow="bus truck rail_fast" speed="36.11" length="9.85" width="2.50" customShape="1" shape="-17.64,13.39 -17.71,12.94"/>
    </edge>
    <edge id="1353" from="8" to="1" priority="1" spreadType="center" length="14.00">
        <lane id="1353_0" index="0" disallow="rail_fast" speed="36.11" length="14.00" width="2.50" customShape="1" shape="-16.63,8.11 -16.83,8.13"/>
        <lane id="1353_1" index="1" disallow="rail_fast" speed="36.11" length="14.00" width="2.50" customShape="1" shape="-16.84,5.62 -17.04,5.63"/>
    </edge>
    <edge id="1354" from="8" to="3" priority="1" spreadType="center" length="10.05">
        <lane id="1354_0" index="0" disallow="bus truck rail_fast" speed="36.11" length="10.05" width="2.50" customShape="1" shape="-14.95,12.58 -14.94,13.12"/>
    </edge>

    <junction id="1" type="priority" x="-23.71" y="7.45" incLanes="1351_0 1353_0 1353_1" intLanes=":1_0_0 :1_1_0 :1_1_1" shape="-18.60,15.11 -17.00,11.18 -17.13,10.22 -17.04,9.86 -16.84,9.58 -16.51,9.40 -16.07,9.31 -16.48,4.33 -25.95,5.12 -25.55,10.11">
        <request index="0" response="110" foes="110" cont="0"/>
        <request index="1" response="000" foes="001" cont="0"/>
        <request index="2" response="000" foes="001" cont="0"/>
    </junction>
    <junction id="2" type="dead_end" x="-93.16" y="13.06" incLanes="1346_0 1346_1" intLanes="" shape="-92.95,15.55 -93.36,10.56"/>
    <junction id="3" type="priority" x="-14.92" y="14.48" incLanes="1354_0" intLanes=":3_0_0" shape="-16.03,15.95 -13.54,15.71 -13.70,13.10 -16.19,13.15">
        <request index="0" response="0" foes="0" cont="0"/>
    </junction>
    <junction id="4" type="dead_end" x="5.33" y="239.28" incLanes="1347_0" intLanes="" shape="6.57,239.18 4.08,239.38"/>
    <junction id="5" type="dead_end" x="2.83" y="239.48" incLanes="" intLanes="" shape="4.08,239.38 1.59,239.58"/>
    <junction id="6" type="priority" x="-17.40" y="14.72" incLanes="1348_0" intLanes=":6_0_0" shape="-18.52,16.19 -16.03,15.95 -16.40,13.18 -18.87,13.61">
        <request index="0" response="0" foes="0" cont="0"/>
    </junction>
    <junction id="7" type="dead_end" x="37.16" y="2.18" incLanes="" intLanes="" shape="36.94,-0.31 37.38,4.67"/>
    <junction id="8" type="priority" x="-9.73" y="6.27" incLanes="1350_0 1350_1" intLanes=":8_0_0 :8_1_0 :8_1_1" shape="-7.46,8.58 -7.92,3.61 -17.62,4.43 -17.17,9.41 -16.39,9.53 -16.14,9.75 -15.99,10.08 -15.94,10.50 -15.98,11.05 -13.67,14.50">
        <request index="0" response="000" foes="000" cont="0"/>
        <request index="1" response="000" foes="000" cont="0"/>
        <request index="2" response="000" foes="000" cont="0"/>
    </junction>

    <connection from="1348" to="1351" fromLane="0" toLane="0" contPos="-4.00" via=":6_0_0" dir="s" state="M"/>
    <connection from="1350" to="1354" fromLane="0" toLane="0" contPos="-4.00" via=":8_0_0" dir="r" state="M"/>
    <connection from="1350" to="1353" fromLane="0" toLane="0" contPos="-4.00" via=":8_1_0" dir="s" state="M"/>
    <connection from="1350" to="1353" fromLane="1" toLane="1" contPos="-4.00" via=":8_1_1" dir="s" state="M"/>
    <connection from="1351" to="1346" fromLane="0" toLane="0" contPos="-4.00" via=":1_0_0" dir="r" state="m"/>
    <connection from="1353" to="1346" fromLane="0" toLane="0" contPos="-4.00" via=":1_1_0" dir="s" state="M"/>
    <connection from="1353" to="1346" fromLane="1" toLane="1" contPos="-4.00" via=":1_1_1" dir="s" state="M"/>
    <connection from="1354" to="1347" fromLane="0" toLane="0" contPos="-4.00" via=":3_0_0" dir="s" state="M"/>

    <connection from=":1_0" to="1346" fromLane="0" toLane="0" dir="r" state="M"/>
    <connection from=":1_1" to="1346" fromLane="0" toLane="0" dir="s" state="M"/>
    <connection from=":1_1" to="1346" fromLane="1" toLane="1" dir="s" state="M"/>
    <connection from=":3_0" to="1347" fromLane="0" toLane="0" dir="s" state="M"/>
    <connection from=":6_0" to="1351" fromLane="0" toLane="0" dir="s" state="M"/>
    <connection from=":8_0" to="1354" fromLane="0" toLane="0" dir="r" state="M"/>
    <connection from=":8_1" to="1353" fromLane="0" toLane="0" dir="s" state="M"/>
    <connection from=":8_1" to="1353" fromLane="1" toLane="1" dir="s" state="M"/>

</net>
