<routes>
	<vehicle depart="0.1" departLane="0" departPos="0" departSpeed="7.7993" id="31" type="passenger">
		<route edges="1347"/>
	</vehicle>
	<vehicle depart="0.1" departLane="0" departPos="135.32849324731836" departSpeed="8.3668" id="33" type="passenger">
		<route edges="1348 1351 1346"/>
	</vehicle>
	<vehicle depart="0.1" departLane="0" departPos="0" departSpeed="8.645" id="37" type="passenger">
		<route edges="1347"/>
	</vehicle>
	<vehicle depart="0.1" departLane="0" departPos="0" departSpeed="11.3643" id="312" type="passenger">
		<route edges="1346"/>
	</vehicle>
	<vehicle depart="0.1" departLane="1" departPos="34.27052454095447" departSpeed="9.7635" id="314" type="passenger">
		<route edges="1350 1353 1346"/>
	</vehicle>
	<vehicle depart="0.1" departLane="0" departPos="27.92452537416881" departSpeed="12.408" id="316" type="passenger">
		<route edges="1350 1353 1346"/>
	</vehicle>
	<vehicle depart="0.1" departLane="0" departPos="0" departSpeed="4.8481" id="317" type="passenger">
		<route edges="1348 1351 1346"/>
	</vehicle>
	<vehicle depart="0.1" departLane="0" departPos="0" departSpeed="7.9667" id="318" type="passenger">
		<route edges="1350 1354 1347"/>
	</vehicle>
	<vehicle depart="0.1" departLane="0" departPos="0" departSpeed="4.5608" id="319" type="passenger">
		<route edges="1350 1353 1346"/>
	</vehicle>
</routes>
