<!-- generated on 2020-12-18 16:47:29.316889 by ipykernel_launcher.py v1_2_0+5214-53edc58fcd
-->
<nodes>
	<node id="1" type="from" x="-23.706725" y="7.44965"/>
	<node id="2" type="to" x="-93.15597500000001" y="13.056375"/>
	<node id="3" type="from" x="-14.916599999999999" y="14.4784"/>
	<node id="4" type="to" x="5.3271" y="239.28199999999998"/>
	<node id="5" type="from" x="2.8348500000000003" y="239.47875"/>
	<node id="6" type="to" x="-17.40275" y="14.723500000000001"/>
	<node id="7" type="from" x="37.160575" y="2.1794"/>
	<node id="8" type="to" x="-9.730425" y="6.273725"/>
</nodes>
