<routes>
	<vehicle depart="0.1" departLane="0" departPos="65.25854792903597" departSpeed="3.8136999" id="37" type="bicycle">
		<route edges="55145 54922"/>
	</vehicle>
	<vehicle depart="0.1" departLane="0" departPos="16.886542601772227" departSpeed="1.4020709" id="339" type="bicycle">
		<route edges="55145 54918"/>
	</vehicle>
	<vehicle depart="0.1" departLane="0" departPos="56.182456935927775" departSpeed="2.0036789" id="311" type="passenger">
		<route edges="55145 54922"/>
	</vehicle>
	<vehicle depart="0.1" departLane="0" departPos="6.649035252561661" departSpeed="5.861582" id="320" type="passenger">
		<route edges=":69_0 54918"/>
	</vehicle>
	<vehicle depart="0.1" departLane="0" departPos="46.8738272778356" departSpeed="2.0550291" id="327" type="passenger">
		<route edges="55145 54918"/>
	</vehicle>
	<vehicle depart="0.1" departLane="0" departPos="37.229260739938" departSpeed="1.5243811" id="332" type="passenger">
		<route edges="55145 54918"/>
	</vehicle>
	<vehicle depart="0.1" departLane="0" departPos="29.36442401522052" departSpeed="1.3657809" id="337" type="passenger">
		<route edges="55145 54918"/>
	</vehicle>
	<vehicle depart="0.1" departLane="0" departPos="35.487222632332525" departSpeed="3.5315103" id="342" type="passenger">
		<route edges=":69_3 54918 54838"/>
	</vehicle>
	<vehicle depart="0.1" departLane="0" departPos="69.22927746089736" departSpeed="0.0" id="343" type="passenger">
		<route edges="54921 54918"/>
	</vehicle>
	<vehicle depart="0.1" departLane="0" departPos="61.42140018669124" departSpeed="0.50272073" id="345" type="passenger">
		<route edges="54921 54918"/>
	</vehicle>
</routes>
