<!-- generated on Tue Feb  9 22:19:38 2021 by Eclipse SUMO netconvert Version 1.8.0
<configuration xmlns:xsi="http://www.w3.org/2001/XMLSchema-instance" xsi:noNamespaceSchemaLocation="http://sumo.dlr.de/xsd/netconvertConfiguration.xsd">

    <input>
        <node-files value="./converted_scenarios/scenario-factory/ESP_Toledo-6_1_I-1-1/ESP_Toledo-6_1_I-1-1.nod.xml"/>
        <edge-files value="./converted_scenarios/scenario-factory/ESP_Toledo-6_1_I-1-1/ESP_Toledo-6_1_I-1-1.edg.xml"/>
        <connection-files value="./converted_scenarios/scenario-factory/ESP_Toledo-6_1_I-1-1/ESP_Toledo-6_1_I-1-1.con.xml"/>
        <tllogic-files value="./converted_scenarios/scenario-factory/ESP_Toledo-6_1_I-1-1/ESP_Toledo-6_1_I-1-1.tll.xml"/>
        <type-files value="/home/zen/commonroad-interactive-benchmarks/install/commonroad-map-tool/crmapconverter/sumo_map/templates/DEU.typ.xml"/>
    </input>

    <output>
        <output-file value="./converted_scenarios/scenario-factory/ESP_Toledo-6_1_I-1-1/ESP_Toledo-6_1_I-1-1.net.xml"/>
    </output>

    <processing>
        <geometry.remove.keep-edges.explicit value="true"/>
        <geometry.avoid-overlap value="true"/>
        <offset.disable-normalization value="true"/>
    </processing>

    <junctions>
        <no-turnarounds value="true"/>
        <junctions.internal-link-detail value="20"/>
    </junctions>

    <report>
        <aggregate-warnings value="5"/>
    </report>

    <random_number>
        <seed value="1234"/>
    </random_number>

</configuration>
--><net xmlns:xsi="http://www.w3.org/2001/XMLSchema-instance" version="1.6" junctionCornerDetail="5" junctionLinkDetail="20" limitTurnSpeed="5.50" xsi:noNamespaceSchemaLocation="http://sumo.dlr.de/xsd/net_file.xsd">

    <location netOffset="0.00,0.00" convBoundary="425.33,-559.68,835.51,-404.42" origBoundary="425.33,-573.21,835.51,-403.57" projParameter="!"/>

    <type id="highway.bridleway" priority="1" speed="2.78" allow="pedestrian" oneway="1" width="2.00"/>
    <type id="highway.bus_guideway" priority="1" speed="27.78" allow="bus" oneway="1"/>
    <type id="highway.cycleway" priority="1" speed="8.33" allow="bicycle" oneway="0" width="1.00"/>
    <type id="highway.footway" priority="1" speed="2.78" allow="pedestrian" oneway="1" width="2.00"/>
    <type id="highway.ford" priority="1" speed="2.78" allow="army" oneway="0"/>
    <type id="highway.living_street" priority="2" speed="2.78" disallow="tram rail_urban rail rail_electric rail_fast ship" oneway="0"/>
    <type id="highway.motorway" priority="14" speed="39.44" allow="private emergency authority army vip passenger hov taxi bus coach delivery truck trailer motorcycle evehicle custom1 custom2" oneway="1"/>
    <type id="highway.motorway_link" priority="9" speed="22.22" allow="private emergency authority army vip passenger hov taxi bus coach delivery truck trailer motorcycle evehicle custom1 custom2" oneway="1"/>
    <type id="highway.path" priority="1" speed="2.78" allow="pedestrian bicycle" oneway="0" width="2.00"/>
    <type id="highway.pedestrian" priority="1" speed="2.78" allow="pedestrian" oneway="1" width="2.00"/>
    <type id="highway.primary" priority="12" speed="27.78" disallow="pedestrian tram rail_urban rail rail_electric rail_fast ship" oneway="0"/>
    <type id="highway.primary_link" priority="7" speed="22.22" disallow="pedestrian tram rail_urban rail rail_electric rail_fast ship" oneway="0"/>
    <type id="highway.raceway" priority="15" speed="83.33" allow="vip" oneway="0"/>
    <type id="highway.residential" priority="3" speed="13.89" disallow="pedestrian tram rail_urban rail rail_electric rail_fast ship" oneway="0"/>
    <type id="highway.secondary" priority="11" speed="27.78" disallow="pedestrian tram rail_urban rail rail_electric rail_fast ship" oneway="0"/>
    <type id="highway.secondary_link" priority="6" speed="22.22" disallow="pedestrian tram rail_urban rail rail_electric rail_fast ship" oneway="0"/>
    <type id="highway.service" priority="1" speed="5.56" allow="pedestrian delivery bicycle" oneway="0"/>
    <type id="highway.stairs" priority="1" speed="1.39" allow="pedestrian" oneway="1" width="2.00"/>
    <type id="highway.step" priority="1" speed="1.39" allow="pedestrian" oneway="1" width="2.00"/>
    <type id="highway.steps" priority="1" speed="1.39" allow="pedestrian" oneway="1" width="2.00"/>
    <type id="highway.tertiary" priority="10" speed="22.22" disallow="pedestrian tram rail_urban rail rail_electric rail_fast ship" oneway="0"/>
    <type id="highway.tertiary_link" priority="5" speed="22.22" disallow="pedestrian tram rail_urban rail rail_electric rail_fast ship" oneway="0"/>
    <type id="highway.track" priority="1" speed="5.56" allow="pedestrian motorcycle moped bicycle" oneway="0"/>
    <type id="highway.trunk" priority="13" speed="27.78" disallow="pedestrian bicycle tram rail_urban rail rail_electric rail_fast ship" oneway="0"/>
    <type id="highway.trunk_link" priority="8" speed="22.22" disallow="pedestrian bicycle tram rail_urban rail rail_electric rail_fast ship" oneway="0"/>
    <type id="highway.unclassified" priority="4" speed="13.89" disallow="pedestrian tram rail_urban rail rail_electric rail_fast ship" oneway="0"/>
    <type id="highway.unsurfaced" priority="1" speed="8.33" disallow="tram rail_urban rail rail_electric rail_fast ship" oneway="0"/>
    <type id="railway.highspeed" priority="21" speed="69.44" allow="rail_fast" oneway="1"/>
    <type id="railway.light_rail" priority="19" speed="27.78" allow="rail_urban" oneway="1"/>
    <type id="railway.preserved" priority="16" speed="27.78" allow="rail" oneway="1"/>
    <type id="railway.rail" priority="20" speed="44.44" allow="rail" oneway="1"/>
    <type id="railway.subway" priority="18" speed="27.78" allow="rail_urban" oneway="1"/>
    <type id="railway.tram" priority="17" speed="13.89" allow="tram" oneway="1"/>

    <edge id=":63_0" function="internal">
        <lane id=":63_0_0" index="0" disallow="pedestrian tram rail_urban rail rail_electric rail_fast ship" speed="9.40" length="18.66" width="3.50" shape="645.11,-424.18 645.53,-420.19 646.22,-416.83 647.12,-414.12 648.08,-412.04 649.30,-410.11 650.80,-408.38 651.95,-407.42"/>
    </edge>
    <edge id=":63_1" function="internal">
        <lane id=":63_1_0" index="0" disallow="pedestrian tram rail_urban rail rail_electric rail_fast ship" speed="8.23" length="16.37" width="3.50" shape="637.04,-408.87 637.53,-409.27 638.73,-410.63 639.71,-412.16 640.45,-413.82 641.14,-416.14 641.58,-419.13 641.69,-422.16 641.62,-423.97"/>
    </edge>
    <edge id=":63_2" function="internal">
        <lane id=":63_2_0" index="0" disallow="pedestrian tram rail_urban rail rail_electric rail_fast ship" speed="36.11" length="15.09" width="3.50" shape="636.81,-405.20 644.16,-404.81 651.89,-404.56"/>
    </edge>
    <edge id=":64_0" function="internal">
        <lane id=":64_0_0" index="0" disallow="pedestrian tram rail_urban rail rail_electric rail_fast ship" speed="11.23" length="28.55" width="3.50" shape="692.98,-541.95 692.57,-545.22 692.08,-547.36 691.37,-549.44 690.41,-551.41 689.83,-552.34 689.17,-553.22 688.45,-554.05 687.65,-554.81 686.80,-555.50 685.88,-556.11 684.92,-556.64 682.90,-557.48 680.77,-558.04 678.60,-558.35 676.41,-558.47 674.21,-558.41"/>
    </edge>
    <edge id=":64_1" function="internal">
        <lane id=":64_1_0" index="0" disallow="pedestrian tram rail_urban rail rail_electric rail_fast ship" speed="12.08" length="34.00" width="3.50" shape="692.98,-541.95 692.90,-545.87 693.11,-548.48 693.59,-551.05 694.39,-553.54 694.93,-554.73 695.56,-555.88 696.28,-556.97 697.10,-557.99 698.01,-558.93 699.00,-559.79 700.05,-560.56 702.33,-561.84 704.77,-562.79 707.30,-563.46 709.88,-563.89 712.48,-564.13"/>
    </edge>
    <edge id=":64_2" function="internal">
        <lane id=":64_2_0" index="0" disallow="pedestrian tram rail_urban rail rail_electric rail_fast ship" speed="11.08" length="28.38" width="3.50" shape="712.70,-560.64 710.42,-560.43 708.20,-560.06 706.06,-559.50 704.04,-558.71 702.15,-557.64 701.32,-557.04 700.54,-556.35 699.81,-555.61 699.16,-554.79 698.58,-553.92 698.07,-553.00 697.65,-552.06 696.98,-549.98 696.58,-547.82 696.40,-545.62 696.47,-542.20"/>
    </edge>
    <edge id=":64_3" function="internal">
        <lane id=":64_3_0" index="0" disallow="pedestrian tram rail_urban rail rail_electric rail_fast ship" speed="36.11" length="38.55" width="3.50" shape="712.70,-560.64 693.45,-559.52 674.21,-558.41"/>
    </edge>
    <edge id=":64_4" function="internal">
        <lane id=":64_4_0" index="0" disallow="pedestrian tram rail_urban rail rail_electric rail_fast ship" speed="36.11" length="38.53" width="3.50" shape="674.01,-561.91 693.25,-563.02 712.48,-564.13"/>
    </edge>
    <edge id=":64_5" function="internal">
        <lane id=":64_5_0" index="0" disallow="pedestrian tram rail_urban rail rail_electric rail_fast ship" speed="12.23" length="34.08" width="3.50" shape="674.01,-561.91 676.54,-561.97 679.10,-561.84 681.67,-561.46 684.21,-560.79 686.64,-559.79 687.84,-559.12 688.97,-558.36 690.03,-557.52 691.01,-556.58 691.90,-555.56 692.70,-554.48 693.43,-553.32 694.57,-550.97 695.41,-548.50 696.00,-545.97 696.47,-542.20"/>
    </edge>
    <edge id=":65_0" function="internal">
        <lane id=":65_0_0" index="0" disallow="pedestrian tram rail_urban rail rail_electric rail_fast ship" speed="11.21" length="28.77" width="3.50" shape="576.01,-533.62 575.79,-535.91 575.40,-538.14 574.81,-540.30 573.99,-542.34 572.90,-544.24 572.28,-545.07 571.57,-545.86 570.81,-546.59 569.98,-547.24 569.09,-547.83 568.15,-548.34 567.19,-548.77 565.08,-549.46 562.89,-549.88 560.66,-550.08 557.17,-550.04"/>
    </edge>
    <edge id=":65_1" function="internal">
        <lane id=":65_1_0" index="0" disallow="pedestrian tram rail_urban rail rail_electric rail_fast ship" speed="12.24" length="33.93" width="3.50" shape="576.01,-533.62 575.94,-536.15 576.06,-538.70 576.42,-541.25 577.06,-543.78 578.03,-546.21 578.67,-547.42 579.40,-548.55 580.23,-549.62 581.14,-550.62 582.14,-551.53 583.20,-552.35 584.35,-553.10 586.67,-554.28 589.12,-555.16 591.63,-555.78 595.36,-556.30"/>
    </edge>
    <edge id=":65_2" function="internal">
        <lane id=":65_2_0" index="0" disallow="pedestrian tram rail_urban rail rail_electric rail_fast ship" speed="11.25" length="28.44" width="3.50" shape="595.67,-552.81 592.42,-552.36 590.30,-551.84 588.24,-551.10 586.29,-550.10 585.38,-549.50 584.51,-548.83 583.70,-548.09 582.96,-547.29 582.30,-546.42 581.70,-545.50 581.19,-544.53 580.38,-542.50 579.84,-540.38 579.54,-538.21 579.44,-536.02 579.50,-533.84"/>
    </edge>
    <edge id=":65_3" function="internal">
        <lane id=":65_3_0" index="0" disallow="pedestrian tram rail_urban rail rail_electric rail_fast ship" speed="36.11" length="38.60" width="3.50" shape="595.67,-552.81 570.73,-550.91 557.17,-550.04"/>
    </edge>
    <edge id=":65_4" function="internal">
        <lane id=":65_4_0" index="0" disallow="pedestrian tram rail_urban rail rail_electric rail_fast ship" speed="36.11" length="38.50" width="3.50" shape="556.96,-553.53 570.48,-554.41 595.36,-556.30"/>
    </edge>
    <edge id=":65_5" function="internal">
        <lane id=":65_5_0" index="0" disallow="pedestrian tram rail_urban rail rail_electric rail_fast ship" speed="12.21" length="34.34" width="3.50" shape="556.96,-553.54 560.95,-553.57 563.58,-553.34 566.17,-552.83 568.68,-552.02 569.88,-551.48 571.04,-550.85 572.14,-550.12 573.18,-549.30 574.14,-548.39 575.01,-547.40 575.80,-546.35 577.12,-544.06 578.10,-541.61 578.80,-539.06 579.25,-536.46 579.50,-533.84"/>
    </edge>
    <edge id=":66_0" function="internal">
        <lane id=":66_0_0" index="0" disallow="pedestrian tram rail_urban rail rail_electric rail_fast ship" speed="11.14" length="28.93" width="3.50" shape="634.83,-538.28 634.44,-541.76 633.95,-543.96 633.25,-546.08 632.28,-548.08 631.72,-548.96 631.08,-549.82 630.37,-550.61 629.59,-551.33 628.75,-551.97 627.86,-552.54 626.90,-553.04 625.94,-553.45 623.80,-554.10 621.59,-554.47 619.34,-554.62 615.83,-554.50"/>
    </edge>
    <edge id=":66_1" function="internal">
        <lane id=":66_1_0" index="0" disallow="pedestrian tram rail_urban rail rail_electric rail_fast ship" speed="12.20" length="34.31" width="3.50" shape="634.83,-538.28 634.79,-542.27 635.03,-544.90 635.53,-547.49 636.35,-549.99 636.89,-551.19 637.52,-552.35 638.25,-553.45 639.07,-554.48 639.98,-555.44 640.97,-556.31 642.03,-557.10 644.32,-558.41 646.76,-559.39 649.31,-560.08 651.91,-560.52 654.53,-560.77"/>
    </edge>
    <edge id=":66_2" function="internal">
        <lane id=":66_2_0" index="0" disallow="pedestrian tram rail_urban rail rail_electric rail_fast ship" speed="11.20" length="28.75" width="3.50" shape="654.76,-557.27 652.46,-557.06 650.22,-556.68 648.07,-556.10 646.03,-555.28 644.13,-554.19 643.30,-553.57 642.51,-552.87 641.78,-552.11 641.12,-551.28 640.54,-550.39 640.03,-549.45 639.60,-548.50 638.91,-546.39 638.49,-544.21 638.29,-541.98 638.32,-538.49"/>
    </edge>
    <edge id=":66_3" function="internal">
        <lane id=":66_3_0" index="0" disallow="pedestrian tram rail_urban rail rail_electric rail_fast ship" speed="36.11" length="39.03" width="3.50" shape="654.76,-557.27 640.41,-556.37 615.83,-554.50"/>
    </edge>
    <edge id=":66_4" function="internal">
        <lane id=":66_4_0" index="0" disallow="pedestrian tram rail_urban rail rail_electric rail_fast ship" speed="36.11" length="39.09" width="3.50" shape="615.54,-557.99 640.17,-559.86 654.53,-560.77"/>
    </edge>
    <edge id=":66_5" function="internal">
        <lane id=":66_5_0" index="0" disallow="pedestrian tram rail_urban rail rail_electric rail_fast ship" speed="12.15" length="34.60" width="3.50" shape="615.54,-557.99 619.56,-558.12 622.21,-557.94 624.83,-557.50 627.37,-556.73 628.59,-556.21 629.77,-555.60 630.89,-554.88 631.94,-554.07 632.91,-553.17 633.80,-552.18 634.60,-551.12 635.31,-549.99 636.46,-547.60 637.30,-545.08 637.87,-542.48 638.32,-538.49"/>
    </edge>
    <edge id=":67_0" function="internal">
        <lane id=":67_0_0" index="0" disallow="pedestrian tram rail_urban rail rail_electric rail_fast ship" speed="11.13" length="28.38" width="3.50" shape="527.71,-548.26 524.46,-547.89 522.33,-547.43 520.25,-546.75 518.28,-545.82 517.35,-545.24 516.47,-544.60 515.64,-543.88 514.88,-543.10 514.20,-542.25 513.59,-541.34 513.06,-540.39 512.22,-538.37 511.68,-536.26 511.37,-534.09 511.27,-531.91 511.34,-529.73"/>
    </edge>
    <edge id=":67_1" function="internal">
        <lane id=":67_1_0" index="0" disallow="pedestrian tram rail_urban rail rail_electric rail_fast ship" speed="36.11" length="38.81" width="3.50" shape="527.71,-548.26 508.37,-546.99 488.98,-545.72"/>
    </edge>
    <edge id=":67_2" function="internal">
        <lane id=":67_2_0" index="0" disallow="pedestrian tram rail_urban rail rail_electric rail_fast ship" speed="36.11" length="38.81" width="3.50" shape="488.74,-549.21 508.14,-550.48 527.47,-551.75"/>
    </edge>
    <edge id=":67_3" function="internal">
        <lane id=":67_3_0" index="0" disallow="pedestrian tram rail_urban rail rail_electric rail_fast ship" speed="12.17" length="34.29" width="3.50" shape="488.74,-549.22 492.72,-549.29 495.35,-549.08 497.94,-548.61 500.45,-547.82 501.66,-547.29 502.82,-546.67 503.93,-545.95 504.97,-545.14 505.93,-544.24 506.81,-543.26 507.60,-542.21 508.31,-541.09 509.46,-538.72 510.30,-536.23 510.88,-533.65 511.34,-529.73"/>
    </edge>
    <edge id=":67_4" function="internal">
        <lane id=":67_4_0" index="0" disallow="pedestrian tram rail_urban rail rail_electric rail_fast ship" speed="11.17" length="28.70" width="3.50" shape="507.85,-529.49 507.45,-532.92 506.96,-535.10 506.25,-537.20 505.29,-539.18 504.73,-540.06 504.09,-540.91 503.38,-541.69 502.61,-542.41 501.78,-543.06 500.89,-543.63 499.95,-544.13 498.99,-544.55 496.88,-545.22 494.70,-545.61 492.46,-545.79 488.98,-545.72"/>
    </edge>
    <edge id=":67_5" function="internal">
        <lane id=":67_5_0" index="0" disallow="pedestrian tram rail_urban rail rail_electric rail_fast ship" speed="12.13" length="33.97" width="3.50" shape="507.85,-529.49 507.77,-532.03 507.89,-534.58 508.25,-537.14 508.91,-539.68 509.91,-542.11 510.57,-543.31 511.33,-544.43 512.18,-545.49 513.12,-546.46 514.14,-547.35 515.23,-548.14 516.39,-548.85 518.75,-549.97 521.22,-550.78 523.75,-551.33 527.47,-551.75"/>
    </edge>
    <edge id=":68_0" function="internal">
        <lane id=":68_0_0" index="0" disallow="pedestrian tram rail_urban rail rail_electric rail_fast ship" speed="9.66" length="19.09" width="3.50" shape="585.93,-427.90 586.34,-423.96 587.00,-420.64 587.84,-417.94 589.00,-415.37 590.20,-413.45 591.65,-411.73 592.84,-410.69"/>
    </edge>
    <edge id=":68_1" function="internal">
        <lane id=":68_1_0" index="0" disallow="pedestrian tram rail_urban rail rail_electric rail_fast ship" speed="8.19" length="16.30" width="3.50" shape="577.89,-412.64 578.35,-413.01 579.56,-414.37 580.54,-415.89 581.28,-417.55 581.96,-419.86 582.41,-422.85 582.50,-425.87 582.44,-427.68"/>
    </edge>
    <edge id=":68_2" function="internal">
        <lane id=":68_2_0" index="0" disallow="pedestrian tram rail_urban rail rail_electric rail_fast ship" speed="36.11" length="15.06" width="3.50" shape="577.63,-408.88 584.11,-408.45 592.66,-407.88"/>
    </edge>
    <edge id=":69_0" function="internal">
        <lane id=":69_0_0" index="0" disallow="pedestrian tram rail_urban rail rail_electric rail_fast ship" speed="11.15" length="28.29" width="3.50" shape="760.06,-546.05 759.68,-549.28 759.20,-551.40 758.50,-553.46 757.54,-555.42 756.96,-556.34 756.31,-557.21 755.58,-558.02 754.79,-558.76 753.93,-559.44 753.02,-560.04 752.07,-560.56 750.05,-561.37 747.94,-561.91 745.79,-562.22 743.61,-562.33 741.43,-562.28"/>
    </edge>
    <edge id=":69_1" function="internal">
        <lane id=":69_1_0" index="0" disallow="pedestrian tram rail_urban rail rail_electric rail_fast ship" speed="12.88" length="33.34" width="3.50" shape="760.06,-546.05 760.00,-547.27 760.09,-550.86 760.40,-553.31 760.95,-555.72 761.78,-558.08 762.90,-560.33 764.31,-562.42 765.99,-564.30 767.89,-565.95 769.94,-567.34 772.12,-568.50 774.38,-569.46 777.82,-570.54"/>
    </edge>
    <edge id=":69_2" function="internal">
        <lane id=":69_2_0" index="0" disallow="pedestrian tram rail_urban rail rail_electric rail_fast ship" speed="11.92" length="28.45" width="3.50" shape="778.70,-567.15 775.68,-566.20 773.74,-565.38 771.88,-564.39 770.13,-563.21 768.53,-561.83 767.13,-560.25 765.95,-558.51 765.01,-556.62 764.31,-554.63 763.84,-552.57 763.58,-550.48 763.50,-547.31 763.55,-546.29"/>
    </edge>
    <edge id=":69_3" function="internal">
        <lane id=":69_3_0" index="0" disallow="pedestrian tram rail_urban rail rail_electric rail_fast ship" speed="36.11" length="37.64" width="3.50" shape="778.70,-567.15 772.58,-565.77 765.37,-564.55 757.07,-563.52 746.65,-562.61 741.43,-562.28"/>
    </edge>
    <edge id=":69_4" function="internal">
        <lane id=":69_4_0" index="0" disallow="pedestrian tram rail_urban rail rail_electric rail_fast ship" speed="36.11" length="36.95" width="3.50" shape="741.23,-565.77 746.37,-566.10 756.64,-566.99 764.79,-568.01 771.86,-569.20 777.82,-570.54"/>
    </edge>
    <edge id=":69_5" function="internal">
        <lane id=":69_5_0" index="0" disallow="pedestrian tram rail_urban rail rail_electric rail_fast ship" speed="12.16" length="33.83" width="3.50" shape="741.23,-565.77 743.75,-565.83 746.29,-565.70 748.83,-565.34 751.36,-564.69 753.77,-563.71 754.98,-563.05 756.10,-562.31 757.16,-561.47 758.14,-560.55 759.04,-559.54 759.84,-558.47 760.57,-557.32 761.71,-554.98 762.54,-552.52 763.11,-550.01 763.55,-546.29"/>
    </edge>
    <edge id=":70_0" function="internal">
        <lane id=":70_0_0" index="0" disallow="pedestrian tram rail_urban rail rail_electric rail_fast ship" speed="9.13" length="17.97" width="3.50" shape="705.14,-422.47 705.53,-419.04 706.25,-415.67 707.19,-412.95 708.21,-410.89 709.50,-408.99 711.08,-407.32 712.11,-406.52"/>
    </edge>
    <edge id=":70_1" function="internal">
        <lane id=":70_1_0" index="0" disallow="pedestrian tram rail_urban rail rail_electric rail_fast ship" speed="8.32" length="16.40" width="3.50" shape="697.16,-407.06 697.88,-407.68 699.02,-409.05 699.94,-410.58 700.83,-412.78 701.39,-415.09 701.71,-418.05 701.68,-421.62 701.65,-422.20"/>
    </edge>
    <edge id=":70_2" function="internal">
        <lane id=":70_2_0" index="0" disallow="pedestrian tram rail_urban rail rail_electric rail_fast ship" speed="36.11" length="15.09" width="3.50" shape="697.09,-403.65 704.55,-403.57 712.18,-403.65"/>
    </edge>
    <edge id=":71_0" function="internal">
        <lane id=":71_0_0" index="0" disallow="pedestrian tram rail_urban rail rail_electric rail_fast ship" speed="11.11" length="28.89" width="3.50" shape="515.14,-433.04 514.53,-436.49 513.91,-438.66 513.08,-440.73 511.99,-442.66 511.37,-443.51 510.68,-444.33 509.92,-445.07 509.10,-445.74 508.22,-446.33 507.29,-446.84 506.31,-447.28 505.32,-447.62 503.15,-448.12 500.93,-448.35 498.67,-448.34 495.21,-447.99"/>
    </edge>
    <edge id=":71_1" function="internal">
        <lane id=":71_1_0" index="0" disallow="pedestrian tram rail_urban rail rail_electric rail_fast ship" speed="36.11" length="38.46" width="3.50" shape="515.14,-433.04 513.40,-448.56 512.04,-464.08 511.53,-471.33"/>
    </edge>
    <edge id=":71_2" function="internal">
        <lane id=":71_2_0" index="0" disallow="pedestrian tram rail_urban rail rail_electric rail_fast ship" speed="36.11" length="38.22" width="3.50" shape="515.03,-471.55 515.53,-464.35 516.88,-448.91 518.61,-433.50"/>
    </edge>
    <edge id=":71_3" function="internal">
        <lane id=":71_3_0" index="0" disallow="pedestrian tram rail_urban rail rail_electric rail_fast ship" speed="12.67" length="34.56" width="3.50" shape="515.03,-471.55 515.09,-469.05 514.96,-466.54 514.59,-464.01 513.94,-461.52 512.96,-459.11 511.63,-456.84 509.97,-454.80 508.04,-453.03 505.90,-451.56 503.63,-450.38 501.27,-449.44 498.85,-448.73 495.21,-447.99"/>
    </edge>
    <edge id=":71_4" function="internal">
        <lane id=":71_4_0" index="0" disallow="pedestrian tram rail_urban rail rail_electric rail_fast ship" speed="11.70" length="29.32" width="3.50" shape="494.68,-451.45 497.87,-452.09 499.96,-452.71 501.98,-453.50 503.91,-454.50 505.70,-455.72 507.31,-457.18 508.68,-458.86 509.78,-460.73 510.61,-462.74 511.16,-464.84 511.48,-466.99 511.59,-469.16 511.53,-471.33"/>
    </edge>
    <edge id=":71_5" function="internal">
        <lane id=":71_5_0" index="0" disallow="pedestrian tram rail_urban rail rail_electric rail_fast ship" speed="12.12" length="34.56" width="3.50" shape="494.68,-451.45 498.65,-451.85 501.30,-451.86 503.95,-451.59 506.54,-450.99 507.79,-450.55 509.01,-450.01 510.17,-449.37 511.27,-448.63 512.30,-447.79 513.25,-446.86 514.11,-445.85 514.89,-444.77 516.19,-442.45 517.18,-439.99 517.92,-437.43 518.61,-433.50"/>
    </edge>
    <edge id=":72_0" function="internal">
        <lane id=":72_0_0" index="0" disallow="pedestrian tram rail_urban rail rail_electric rail_fast ship" speed="9.18" length="16.13" width="3.50" shape="519.07,-429.78 519.65,-426.42 520.39,-423.69 521.45,-421.06 522.54,-419.08 523.88,-417.26 525.48,-415.65 525.69,-415.49"/>
    </edge>
    <edge id=":72_1" function="internal">
        <lane id=":72_1_0" index="0" disallow="pedestrian tram rail_urban rail rail_electric rail_fast ship" speed="9.84" length="18.50" width="3.50" shape="513.48,-411.43 514.43,-412.66 515.12,-414.15 515.70,-416.26 516.05,-418.97 516.13,-422.80 515.79,-427.71 515.60,-429.33"/>
    </edge>
    <edge id=":72_2" function="internal">
        <lane id=":72_2_0" index="0" disallow="pedestrian tram rail_urban rail rail_electric rail_fast ship" speed="22.18" length="11.85" width="3.50" shape="513.69,-410.80 514.53,-411.02 518.56,-411.67 523.65,-412.02 525.45,-412.03"/>
    </edge>

    <edge id="54827" from="62" to="72" priority="3" type="highway.residential" spreadType="center" length="7.44">
        <lane id="54827_0" index="0" disallow="pedestrian tram rail_urban rail rail_electric rail_fast ship" speed="36.11" length="7.44" width="3.48" customShape="1" shape="506.60,-408.54 511.34,-410.14 511.46,-410.18 513.65,-410.93"/>
    </edge>
    <edge id="54835" from="68" to="63" priority="3" type="highway.residential" spreadType="center" length="44.23">
        <lane id="54835_0" index="0" disallow="pedestrian tram rail_urban rail rail_electric rail_fast ship" speed="36.11" length="44.23" width="3.50" customShape="1" shape="592.66,-407.85 613.70,-406.53 636.80,-405.08"/>
    </edge>
    <edge id="54837" from="70" to="64" priority="3" type="highway.residential" spreadType="center" length="120.06" shape="701.97,-412.91 692.07,-554.75">
        <lane id="54837_0" index="0" disallow="pedestrian tram rail_urban rail rail_electric rail_fast ship" speed="36.11" length="120.06" width="3.50" customShape="1" shape="701.65,-422.20 697.31,-482.08 692.98,-541.95"/>
    </edge>
    <edge id="54838" from="64" to="70" priority="3" type="highway.residential" spreadType="center" length="120.05" shape="695.56,-555.00 705.46,-413.15">
        <lane id="54838_0" index="0" disallow="pedestrian tram rail_urban rail rail_electric rail_fast ship" speed="36.11" length="120.05" width="3.50" customShape="1" shape="696.47,-542.20 700.80,-482.33 705.14,-422.46"/>
    </edge>
    <edge id="54840" from="63" to="70" priority="3" type="highway.residential" spreadType="center" length="45.21">
        <lane id="54840_0" index="0" disallow="pedestrian tram rail_urban rail rail_electric rail_fast ship" speed="36.11" length="45.21" width="3.50" customShape="1" shape="651.89,-404.45 673.77,-404.01 697.09,-403.53"/>
    </edge>
    <edge id="54906" from="67" to="41" priority="3" type="highway.residential" spreadType="center" length="63.54" shape="508.71,-540.61 425.60,-541.26">
        <lane id="54906_0" index="0" disallow="pedestrian tram rail_urban rail rail_electric rail_fast ship" speed="36.11" length="63.54" width="3.50" customShape="1" shape="488.98,-545.72 457.30,-543.49 425.60,-541.26"/>
    </edge>
    <edge id="54907" from="54" to="67" priority="3" type="highway.residential" spreadType="center" length="63.60" shape="425.33,-544.74 508.74,-544.11">
        <lane id="54907_0" index="0" disallow="pedestrian tram rail_urban rail rail_electric rail_fast ship" speed="36.11" length="63.60" width="3.50" customShape="1" shape="425.33,-544.74 457.05,-546.98 488.77,-549.22"/>
    </edge>
    <edge id="54909" from="65" to="67" priority="3" type="highway.residential" spreadType="center" length="29.54" shape="576.89,-544.94 508.75,-540.61">
        <lane id="54909_0" index="0" disallow="pedestrian tram rail_urban rail rail_electric rail_fast ship" speed="36.11" length="29.54" width="3.50" customShape="1" shape="557.17,-550.04 542.46,-549.15 527.68,-548.26"/>
    </edge>
    <edge id="54910" from="67" to="65" priority="3" type="highway.residential" spreadType="center" length="29.57" shape="508.53,-544.10 576.67,-548.44">
        <lane id="54910_0" index="0" disallow="pedestrian tram rail_urban rail rail_electric rail_fast ship" speed="36.11" length="29.57" width="3.50" customShape="1" shape="527.47,-551.75 542.25,-552.64 556.99,-553.54"/>
    </edge>
    <edge id="54912" from="66" to="65" priority="3" type="highway.residential" spreadType="center" length="20.25" shape="635.83,-549.48 576.92,-544.95">
        <lane id="54912_0" index="0" disallow="pedestrian tram rail_urban rail rail_electric rail_fast ship" speed="36.11" length="20.25" width="3.50" customShape="1" shape="615.83,-554.50 605.77,-553.66 595.65,-552.81"/>
    </edge>
    <edge id="54913" from="65" to="66" priority="3" type="highway.residential" spreadType="center" length="20.28" shape="576.65,-548.43 635.56,-552.96">
        <lane id="54913_0" index="0" disallow="pedestrian tram rail_urban rail rail_electric rail_fast ship" speed="36.11" length="20.28" width="3.50" customShape="1" shape="595.36,-556.30 605.48,-557.14 615.57,-557.99"/>
    </edge>
    <edge id="54915" from="64" to="66" priority="3" type="highway.residential" spreadType="center" length="19.50" shape="693.92,-553.13 635.70,-549.47">
        <lane id="54915_0" index="0" disallow="pedestrian tram rail_urban rail rail_electric rail_fast ship" speed="36.11" length="19.50" width="3.50" customShape="1" shape="674.21,-558.41 664.47,-557.84 654.74,-557.27"/>
    </edge>
    <edge id="54916" from="66" to="64" priority="3" type="highway.residential" spreadType="center" length="19.53" shape="635.48,-552.96 693.70,-556.62">
        <lane id="54916_0" index="0" disallow="pedestrian tram rail_urban rail rail_electric rail_fast ship" speed="36.11" length="19.53" width="3.50" customShape="1" shape="654.53,-560.77 664.27,-561.34 674.03,-561.91"/>
    </edge>
    <edge id="54918" from="69" to="64" priority="3" type="highway.residential" spreadType="center" length="28.80" shape="760.64,-557.94 693.94,-553.13">
        <lane id="54918_0" index="0" disallow="pedestrian tram rail_urban rail rail_electric rail_fast ship" speed="36.11" length="28.80" width="3.50" customShape="1" shape="741.43,-562.28 727.06,-561.46 712.68,-560.64"/>
    </edge>
    <edge id="54919" from="64" to="69" priority="3" type="highway.residential" spreadType="center" length="28.82" shape="693.69,-556.62 760.39,-561.43">
        <lane id="54919_0" index="0" disallow="pedestrian tram rail_urban rail rail_electric rail_fast ship" speed="36.11" length="28.82" width="3.50" customShape="1" shape="712.48,-564.13 726.86,-564.95 741.25,-565.77"/>
    </edge>
    <edge id="54921" from="51" to="69" priority="3" type="highway.residential" spreadType="center" length="70.07" shape="834.84,-537.29 759.97,-558.00">