<!-- generated on Tue Feb  9 22:23:46 2021 by Eclipse SUMO netconvert Version 1.8.0
<configuration xmlns:xsi="http://www.w3.org/2001/XMLSchema-instance" xsi:noNamespaceSchemaLocation="http://sumo.dlr.de/xsd/netconvertConfiguration.xsd">

    <input>
        <node-files value="./converted_scenarios/scenario-factory/BEL_Zwevegem-2_1_I-1-1/BEL_Zwevegem-2_1_I-1-1.nod.xml"/>
        <edge-files value="./converted_scenarios/scenario-factory/BEL_Zwevegem-2_1_I-1-1/BEL_Zwevegem-2_1_I-1-1.edg.xml"/>
        <connection-files value="./converted_scenarios/scenario-factory/BEL_Zwevegem-2_1_I-1-1/BEL_Zwevegem-2_1_I-1-1.con.xml"/>
        <tllogic-files value="./converted_scenarios/scenario-factory/BEL_Zwevegem-2_1_I-1-1/BEL_Zwevegem-2_1_I-1-1.tll.xml"/>
        <type-files value="/home/zen/commonroad-interactive-benchmarks/install/commonroad-map-tool/crmapconverter/sumo_map/templates/DEU.typ.xml"/>
    </input>

    <output>
        <output-file value="./converted_scenarios/scenario-factory/BEL_Zwevegem-2_1_I-1-1/BEL_Zwevegem-2_1_I-1-1.net.xml"/>
    </output>

    <processing>
        <geometry.remove.keep-edges.explicit value="true"/>
        <geometry.avoid-overlap value="true"/>
        <offset.disable-normalization value="true"/>
    </processing>

    <junctions>
        <no-turnarounds value="true"/>
        <junctions.internal-link-detail value="20"/>
    </junctions>

    <report>
        <aggregate-warnings value="5"/>
    </report>

    <random_number>
        <seed value="1234"/>
    </random_number>

</configuration>
--><net xmlns:xsi="http://www.w3.org/2001/XMLSchema-instance" version="1.6" junctionCornerDetail="5" junctionLinkDetail="20" limitTurnSpeed="5.50" xsi:noNamespaceSchemaLocation="http://sumo.dlr.de/xsd/net_file.xsd">

    <location netOffset="0.00,0.00" convBoundary="820.38,-490.19,997.09,-272.31" origBoundary="820.38,-490.19,997.09,-272.31" projParameter="!"/>

    <type id="highway.bridleway" priority="1" speed="2.78" allow="pedestrian" oneway="1" width="2.00"/>
    <type id="highway.bus_guideway" priority="1" speed="27.78" allow="bus" oneway="1"/>
    <type id="highway.cycleway" priority="1" speed="8.33" allow="bicycle" oneway="0" width="1.00"/>
    <type id="highway.footway" priority="1" speed="2.78" allow="pedestrian" oneway="1" width="2.00"/>
    <type id="highway.ford" priority="1" speed="2.78" allow="army" oneway="0"/>
    <type id="highway.living_street" priority="2" speed="2.78" disallow="tram rail_urban rail rail_electric rail_fast ship" oneway="0"/>
    <type id="highway.motorway" priority="14" speed="39.44" allow="private emergency authority army vip passenger hov taxi bus coach delivery truck trailer motorcycle evehicle custom1 custom2" oneway="1"/>
    <type id="highway.motorway_link" priority="9" speed="22.22" allow="private emergency authority army vip passenger hov taxi bus coach delivery truck trailer motorcycle evehicle custom1 custom2" oneway="1"/>
    <type id="highway.path" priority="1" speed="2.78" allow="pedestrian bicycle" oneway="0" width="2.00"/>
    <type id="highway.pedestrian" priority="1" speed="2.78" allow="pedestrian" oneway="1" width="2.00"/>
    <type id="highway.primary" priority="12" speed="27.78" disallow="pedestrian tram rail_urban rail rail_electric rail_fast ship" oneway="0"/>
    <type id="highway.primary_link" priority="7" speed="22.22" disallow="pedestrian tram rail_urban rail rail_electric rail_fast ship" oneway="0"/>
    <type id="highway.raceway" priority="15" speed="83.33" allow="vip" oneway="0"/>
    <type id="highway.residential" priority="3" speed="13.89" disallow="pedestrian tram rail_urban rail rail_electric rail_fast ship" oneway="0"/>
    <type id="highway.secondary" priority="11" speed="27.78" disallow="pedestrian tram rail_urban rail rail_electric rail_fast ship" oneway="0"/>
    <type id="highway.secondary_link" priority="6" speed="22.22" disallow="pedestrian tram rail_urban rail rail_electric rail_fast ship" oneway="0"/>
    <type id="highway.service" priority="1" speed="5.56" allow="pedestrian delivery bicycle" oneway="0"/>
    <type id="highway.stairs" priority="1" speed="1.39" allow="pedestrian" oneway="1" width="2.00"/>
    <type id="highway.step" priority="1" speed="1.39" allow="pedestrian" oneway="1" width="2.00"/>
    <type id="highway.steps" priority="1" speed="1.39" allow="pedestrian" oneway="1" width="2.00"/>
    <type id="highway.tertiary" priority="10" speed="22.22" disallow="pedestrian tram rail_urban rail rail_electric rail_fast ship" oneway="0"/>
    <type id="highway.tertiary_link" priority="5" speed="22.22" disallow="pedestrian tram rail_urban rail rail_electric rail_fast ship" oneway="0"/>
    <type id="highway.track" priority="1" speed="5.56" allow="pedestrian motorcycle moped bicycle" oneway="0"/>
    <type id="highway.trunk" priority="13" speed="27.78" disallow="pedestrian bicycle tram rail_urban rail rail_electric rail_fast ship" oneway="0"/>
    <type id="highway.trunk_link" priority="8" speed="22.22" disallow="pedestrian bicycle tram rail_urban rail rail_electric rail_fast ship" oneway="0"/>
    <type id="highway.unclassified" priority="4" speed="13.89" disallow="pedestrian tram rail_urban rail rail_electric rail_fast ship" oneway="0"/>
    <type id="highway.unsurfaced" priority="1" speed="8.33" disallow="tram rail_urban rail rail_electric rail_fast ship" oneway="0"/>
    <type id="railway.highspeed" priority="21" speed="69.44" allow="rail_fast" oneway="1"/>
    <type id="railway.light_rail" priority="19" speed="27.78" allow="rail_urban" oneway="1"/>
    <type id="railway.preserved" priority="16" speed="27.78" allow="rail" oneway="1"/>
    <type id="railway.rail" priority="20" speed="44.44" allow="rail" oneway="1"/>
    <type id="railway.subway" priority="18" speed="27.78" allow="rail_urban" oneway="1"/>
    <type id="railway.tram" priority="17" speed="13.89" allow="tram" oneway="1"/>

    <edge id=":48_0" function="internal">
        <lane id=":48_0_0" index="0" disallow="pedestrian tram rail_urban rail rail_electric rail_fast ship" speed="36.11" length="38.59" width="3.50" shape="859.36,-366.47 847.22,-381.51 835.12,-396.50"/>
    </edge>
    <edge id=":48_1" function="internal">
        <lane id=":48_1_0" index="0" disallow="pedestrian tram rail_urban rail rail_electric rail_fast ship" speed="12.14" length="34.33" width="3.50" shape="859.35,-366.47 857.02,-369.70 855.70,-371.99 854.62,-374.39 853.84,-376.91 853.59,-378.21 853.45,-379.52 853.41,-380.84 853.50,-382.16 853.70,-383.46 854.02,-384.74 854.44,-385.99 854.97,-387.20 856.28,-389.49 857.88,-391.59 859.69,-393.51 862.68,-396.10"/>
    </edge>
    <edge id=":48_2" function="internal">
        <lane id=":48_2_0" index="0" disallow="pedestrian tram rail_urban rail rail_electric rail_fast ship" speed="11.13" length="28.70" width="3.50" shape="864.84,-393.34 862.22,-391.08 860.69,-389.45 859.35,-387.69 858.25,-385.78 857.84,-384.82 857.50,-383.82 857.24,-382.79 857.08,-381.75 857.02,-380.70 857.05,-379.64 857.16,-378.58 857.36,-377.56 858.01,-375.44 858.93,-373.42 860.05,-371.48 862.09,-368.66"/>
    </edge>
    <edge id=":48_3" function="internal">
        <lane id=":48_3_0" index="0" disallow="pedestrian tram rail_urban rail rail_electric rail_fast ship" speed="12.26" length="34.02" width="3.50" shape="864.84,-393.34 862.77,-391.85 860.60,-390.51 858.29,-389.35 855.83,-388.45 853.27,-387.87 851.90,-387.72 850.55,-387.69 849.20,-387.76 847.86,-387.96 846.54,-388.26 845.26,-388.68 843.99,-389.20 841.70,-390.45 839.58,-391.98 837.65,-393.71 835.12,-396.50"/>
    </edge>
    <edge id=":48_4" function="internal">
        <lane id=":48_4_0" index="0" disallow="pedestrian tram rail_urban rail rail_electric rail_fast ship" speed="11.26" length="28.54" width="3.50" shape="837.82,-398.73 840.02,-396.29 841.66,-394.83 843.44,-393.54 845.37,-392.50 846.38,-392.08 847.43,-391.74 848.50,-391.50 849.59,-391.34 850.68,-391.28 851.78,-391.31 852.87,-391.43 855.01,-391.91 857.07,-392.67 859.03,-393.65 860.90,-394.81 862.68,-396.10"/>
    </edge>
    <edge id=":48_5" function="internal">
        <lane id=":48_5_0" index="0" disallow="pedestrian tram rail_urban rail rail_electric rail_fast ship" speed="36.11" length="38.64" width="3.50" shape="837.82,-398.73 849.94,-383.71 862.09,-368.66"/>
    </edge>
    <edge id=":49_0" function="internal">
        <lane id=":49_0_0" index="0" disallow="pedestrian tram rail_urban rail rail_electric rail_fast ship" speed="36.11" length="38.64" width="3.50" shape="903.51,-423.36 888.22,-411.50 872.99,-399.67"/>
    </edge>
    <edge id=":49_1" function="internal">
        <lane id=":49_1_0" index="0" disallow="pedestrian tram rail_urban rail rail_electric rail_fast ship" speed="12.19" length="34.23" width="3.50" shape="903.51,-423.36 900.24,-421.09 897.94,-419.82 895.52,-418.79 892.99,-418.07 891.69,-417.85 890.38,-417.74 889.06,-417.74 887.75,-417.85 886.46,-418.08 885.18,-418.42 883.95,-418.86 881.59,-420.04 879.42,-421.52 877.42,-423.24 875.60,-425.13 873.92,-427.15"/>
    </edge>
    <edge id=":49_2" function="internal">
        <lane id=":49_2_0" index="0" disallow="pedestrian tram rail_urban rail rail_electric rail_fast ship" speed="11.18" length="28.66" width="3.50" shape="876.68,-429.30 878.14,-427.53 879.72,-425.90 881.41,-424.44 883.22,-423.20 885.18,-422.23 886.16,-421.88 887.18,-421.61 888.21,-421.42 889.26,-421.33 890.32,-421.34 891.38,-421.43 892.40,-421.60 894.53,-422.20 896.56,-423.06 898.51,-424.14 901.36,-426.13"/>
    </edge>
    <edge id=":49_3" function="internal">
        <lane id=":49_3_0" index="0" disallow="pedestrian tram rail_urban rail rail_electric rail_fast ship" speed="12.18" length="34.14" width="3.50" shape="876.68,-429.30 878.17,-427.23 879.51,-425.05 880.66,-422.71 881.54,-420.23 882.09,-417.65 882.22,-416.28 882.23,-414.92 882.12,-413.56 881.89,-412.21 881.55,-410.90 881.10,-409.63 880.54,-408.37 879.21,-406.11 877.62,-404.03 875.84,-402.14 872.99,-399.67"/>
    </edge>
    <edge id=":49_4" function="internal">
        <lane id=":49_4_0" index="0" disallow="pedestrian tram rail_urban rail rail_electric rail_fast ship" speed="11.18" length="28.58" width="3.50" shape="870.82,-402.42 873.31,-404.57 874.82,-406.17 876.16,-407.92 877.27,-409.82 877.71,-410.82 878.08,-411.86 878.36,-412.92 878.54,-414.01 878.63,-415.10 878.62,-416.20 878.52,-417.30 878.07,-419.45 877.32,-421.52 876.35,-423.49 875.20,-425.37 873.92,-427.15"/>
    </edge>
    <edge id=":49_5" function="internal">
        <lane id=":49_5_0" index="0" disallow="pedestrian tram rail_urban rail rail_electric rail_fast ship" speed="36.11" length="38.66" width="3.50" shape="870.82,-402.42 886.08,-414.26 901.36,-426.13"/>
    </edge>
    <edge id=":50_0" function="internal">
        <lane id=":50_0_0" index="0" disallow="pedestrian tram rail_urban rail rail_electric rail_fast ship" speed="36.11" length="38.68" width="3.50" shape="943.53,-454.92 934.54,-447.70 913.21,-430.90"/>
    </edge>
    <edge id=":50_1" function="internal">
        <lane id=":50_1_0" index="0" disallow="pedestrian tram rail_urban rail rail_electric rail_fast ship" speed="12.10" length="34.17" width="3.50" shape="943.53,-454.92 940.33,-452.59 938.05,-451.27 935.66,-450.19 933.15,-449.43 931.86,-449.18 930.55,-449.05 929.24,-449.02 927.93,-449.12 926.63,-449.33 925.36,-449.65 924.12,-450.09 922.92,-450.62 920.65,-451.95 918.57,-453.55 916.66,-455.35 914.09,-458.34"/>
    </edge>
    <edge id=":50_2" function="internal">
        <lane id=":50_2_0" index="0" disallow="pedestrian tram rail_urban rail rail_electric rail_fast ship" speed="11.09" length="28.53" width="3.50" shape="916.85,-460.49 919.09,-457.88 920.71,-456.35 922.45,-455.01 924.35,-453.90 925.30,-453.48 926.30,-453.13 927.31,-452.87 928.34,-452.70 929.39,-452.63 930.44,-452.65 931.49,-452.76 932.50,-452.95 934.61,-453.59 936.62,-454.49 938.54,-455.61 941.34,-457.65"/>
    </edge>
    <edge id=":50_3" function="internal">
        <lane id=":50_3_0" index="0" disallow="pedestrian tram rail_urban rail rail_electric rail_fast ship" speed="12.18" length="34.09" width="3.50" shape="916.85,-460.49 918.34,-458.42 919.68,-456.24 920.83,-453.91 921.71,-451.44 922.26,-448.86 922.40,-447.49 922.41,-446.13 922.30,-444.78 922.08,-443.43 921.74,-442.12 921.29,-440.84 920.74,-439.59 919.42,-437.33 917.83,-435.25 916.05,-433.36 913.21,-430.90"/>
    </edge>
    <edge id=":50_4" function="internal">
        <lane id=":50_4_0" index="0" disallow="pedestrian tram rail_urban rail rail_electric rail_fast ship" speed="11.17" length="28.55" width="3.50" shape="911.03,-433.64 913.52,-435.79 915.03,-437.39 916.36,-439.13 917.47,-441.03 917.91,-442.04 918.27,-443.07 918.55,-444.14 918.73,-445.22 918.81,-446.31 918.80,-447.41 918.70,-448.51 918.24,-450.65 917.50,-452.72 916.52,-454.69 915.38,-456.56 914.09,-458.34"/>
    </edge>
    <edge id=":50_5" function="internal">
        <lane id=":50_5_0" index="0" disallow="pedestrian tram rail_urban rail rail_electric rail_fast ship" speed="36.11" length="38.67" width="3.50" shape="911.03,-433.64 932.36,-450.43 941.34,-457.65"/>
    </edge>
    <edge id=":51_0" function="internal">
        <lane id=":51_0_0" index="0" disallow="pedestrian tram rail_urban rail rail_electric rail_fast ship" speed="36.11" length="38.85" width="3.50" shape="907.53,-340.39 892.59,-327.97 877.65,-315.56"/>
    </edge>
    <edge id=":51_1" function="internal">
        <lane id=":51_1_0" index="0" disallow="pedestrian tram rail_urban rail rail_electric rail_fast ship" speed="12.12" length="34.29" width="3.50" shape="907.53,-340.39 904.48,-338.10 902.25,-336.76 899.87,-335.65 897.36,-334.84 896.01,-334.56 894.66,-334.40 893.30,-334.36 891.93,-334.44 890.57,-334.64 889.25,-334.96 887.96,-335.39 886.69,-335.93 884.40,-337.23 882.30,-338.79 880.38,-340.55 877.84,-343.40"/>
    </edge>
    <edge id=":51_2" function="internal">
        <lane id=":51_2_0" index="0" disallow="pedestrian tram rail_urban rail rail_electric rail_fast ship" speed="11.11" length="28.63" width="3.50" shape="880.57,-345.59 882.77,-343.12 884.39,-341.63 886.16,-340.32 888.08,-339.23 889.09,-338.80 890.13,-338.45 891.20,-338.19 892.29,-338.03 893.39,-337.97 894.49,-338.00 895.59,-338.13 896.67,-338.35 898.77,-339.03 900.76,-339.96 902.65,-341.09 905.29,-343.07"/>
    </edge>
    <edge id=":51_3" function="internal">
        <lane id=":51_3_0" index="0" disallow="pedestrian tram rail_urban rail rail_electric rail_fast ship" speed="12.29" length="34.48" width="3.50" shape="880.57,-345.59 882.90,-342.36 884.22,-340.07 885.31,-337.65 886.10,-335.11 886.35,-333.81 886.51,-332.50 886.56,-331.17 886.49,-329.85 886.31,-328.53 886.02,-327.24 885.62,-325.97 884.54,-323.56 883.13,-321.31 881.48,-319.23 879.64,-317.32 877.65,-315.56"/>
    </edge>
    <edge id=":51_4" function="internal">
        <lane id=":51_4_0" index="0" disallow="pedestrian tram rail_urban rail rail_electric rail_fast ship" speed="11.30" length="28.97" width="3.50" shape="875.41,-318.24 877.15,-319.79 878.73,-321.43 880.14,-323.20 881.32,-325.07 882.22,-327.10 882.53,-328.09 882.76,-329.14 882.91,-330.20 882.96,-331.26 882.92,-332.33 882.79,-333.41 882.59,-334.44 881.93,-336.58 881.00,-338.62 879.87,-340.58 877.84,-343.40"/>
    </edge>
    <edge id=":51_5" function="internal">
        <lane id=":51_5_0" index="0" disallow="pedestrian tram rail_urban rail rail_electric rail_fast ship" speed="36.11" length="38.85" width="3.50" shape="875.41,-318.24 890.36,-330.66 905.29,-343.07"/>
    </edge>
    <edge id=":52_0" function="internal">
        <lane id=":52_0_0" index="0" disallow="pedestrian tram rail_urban rail rail_electric rail_fast ship" speed="36.11" length="11.60" width="3.50" shape="972.47,-304.11 970.58,-305.32 966.08,-307.93 963.97,-309.45 962.82,-310.49"/>
    </edge>
    <edge id=":52_1" function="internal">
        <lane id=":52_1_0" index="0" disallow="pedestrian tram rail_urban rail rail_electric rail_fast ship" speed="15.42" length="13.27" width="3.46" shape="965.36,-312.90 965.90,-312.35 966.46,-311.87 967.02,-311.44 967.59,-311.05 968.17,-310.72 968.75,-310.42 969.35,-310.15 969.96,-309.92 970.58,-309.72 971.21,-309.54 971.85,-309.37 972.50,-309.22 973.17,-309.08 973.85,-308.95 974.55,-308.81 975.26,-308.67 975.99,-308.53 976.73,-308.37 977.49,-308.19"/>
    </edge>
    <edge id=":54_0" function="internal">
        <lane id=":54_0_0" index="0" disallow="pedestrian tram rail_urban rail rail_electric rail_fast ship" speed="11.19" length="29.15" width="3.50" shape="936.56,-341.07 934.23,-343.72 932.56,-345.27 930.76,-346.63 928.81,-347.75 927.84,-348.17 926.82,-348.52 925.78,-348.78 924.73,-348.94 923.66,-349.01 922.59,-348.98 921.52,-348.85 920.48,-348.65 918.35,-347.97 916.31,-347.02 914.36,-345.85 911.54,-343.73"/>
    </edge>
    <edge id=":54_1" function="internal">
        <lane id=":54_1_0" index="0" disallow="pedestrian tram rail_urban rail rail_electric rail_fast ship" speed="12.14" length="34.38" width="3.50" shape="936.56,-341.07 934.23,-344.32 932.90,-346.60 931.81,-349.01 931.01,-351.52 930.74,-352.82 930.58,-354.13 930.52,-355.45 930.58,-356.77 930.77,-358.07 931.06,-359.36 931.47,-360.62 931.99,-361.83 933.29,-364.13 934.88,-366.24 936.69,-368.16 938.67,-369.91 939.71,-370.73"/>
    </edge>
    <edge id=":54_2" function="internal">
        <lane id=":54_2_0" index="0" disallow="pedestrian tram rail_urban rail rail_electric rail_fast ship" speed="11.13" length="28.73" width="3.49" shape="941.84,-367.96 940.94,-367.25 939.23,-365.73 937.68,-364.09 936.35,-362.33 935.28,-360.42 934.88,-359.46 934.55,-358.45 934.31,-357.42 934.17,-356.38 934.13,-355.33 934.17,-354.27 934.31,-353.21 934.52,-352.18 935.20,-350.06 936.13,-348.03 937.26,-346.08 939.30,-343.25"/>
    </edge>
    <edge id=":54_3" function="internal">
        <lane id=":54_3_0" index="0" disallow="pedestrian tram rail_urban rail rail_electric rail_fast ship" speed="36.11" length="38.80" width="3.50" shape="941.84,-367.96 940.17,-366.68 926.16,-355.69 911.54,-343.73"/>
    </edge>
    <edge id=":54_4" function="internal">
        <lane id=":54_4_0" index="0" disallow="pedestrian tram rail_urban rail rail_electric rail_fast ship" speed="36.11" length="38.94" width="3.50" shape="909.29,-346.42 923.97,-358.42 938.04,-369.45 939.71,-370.73"/>
    </edge>
    <edge id=":54_5" function="internal">
        <lane id=":54_5_0" index="0" disallow="pedestrian tram rail_urban rail rail_electric rail_fast ship" speed="12.19" length="34.82" width="3.49" shape="909.29,-346.42 912.53,-348.85 914.83,-350.22 917.25,-351.35 919.80,-352.16 921.11,-352.42 922.43,-352.58 923.77,-352.61 925.11,-352.53 926.43,-352.33 927.72,-352.00 928.99,-351.57 930.21,-351.04 932.53,-349.71 934.67,-348.10 936.63,-346.28 939.30,-343.25"/>
    </edge>

    <edge id="37624" from="33" to="49" priority="3" type="highway.residential" spreadType="center" length="9.56" shape="870.83,-436.86 884.67,-418.96">
        <lane id="37624_0" index="0" disallow="pedestrian tram rail_urban rail rail_electric rail_fast ship" speed="36.11" length="9.56" width="3.50" customShape="1" shape="870.83,-436.86 873.76,-433.08 876.68,-429.30"/>
    </edge>
    <edge id="37625" from="49" to="11" priority="3" type="highway.residential" spreadType="center" length="9.57" shape="881.91,-416.83 868.06,-434.72">
        <lane id="37625_0" index="0" disallow="pedestrian tram rail_urban rail rail_electric rail_fast ship" speed="36.11" length="9.57" width="3.50" customShape="1" shape="873.92,-427.15 870.99,-430.94 868.06,-434.72"/>
    </edge>
    <edge id="37647" from="49" to="48" priority="3" type="highway.residential" spreadType="center" length="10.33" shape="884.53,-416.85 854.92,-385.44">
        <lane id="37647_0" index="0" disallow="pedestrian tram rail_urban rail rail_electric rail_fast ship" speed="36.11" length="10.33" width="3.50" customShape="1" shape="872.99,-399.67 868.89,-396.49 864.83,-393.33"/>
    </edge>
    <edge id="37648" from="48" to="49" priority="3" type="highway.residential" spreadType="center" length="10.33" shape="852.37,-387.84 881.99,-419.25">
        <lane id="37648_0" index="0" disallow="pedestrian tram rail_urban rail rail_electric rail_fast ship" speed="36.11" length="10.33" width="3.50" customShape="1" shape="862.68,-396.10 866.75,-399.26 870.84,-402.43"/>
    </edge>
    <edge id="37650" from="50" to="49" priority="3" type="highway.residential" spreadType="center" length="12.32" shape="924.46,-447.98 884.28,-416.62">
        <lane id="37650_0" index="0" disallow="pedestrian tram rail_urban rail rail_electric rail_fast ship" speed="36.11" length="12.32" width="3.50" customShape="1" shape="913.21,-430.90 908.33,-427.11 903.48,-423.35"/>
    </edge>
    <edge id="37651" from="49" to="50" priority="3" type="highway.residential" spreadType="center" length="12.28" shape="882.13,-419.38 922.31,-450.74">
        <lane id="37651_0" index="0" disallow="pedestrian tram rail_urban rail rail_electric rail_fast ship" speed="36.11" length="12.28" width="3.50" customShape="1" shape="901.36,-426.13 906.18,-429.87 911.06,-433.66"/>
    </edge>
    <edge id="37653" from="45" to="50" priority="3" type="highway.residential" spreadType="center" length="44.82" shape="971.88,-488.64 924.44,-447.96">
        <lane id="37653_0" index="0" disallow="pedestrian tram rail_urban rail rail_electric rail_fast ship" speed="36.11" length="44.82" width="3.50" customShape="1" shape="971.88,-488.64 965.90,-477.04 963.81,-473.44 961.99,-470.90 959.93,-468.55 956.90,-465.69 943.51,-454.91"/>
    </edge>
    <edge id="37654" from="50" to="37" priority="3" type="highway.residential" spreadType="center" length="43.28" shape="922.17,-450.62 968.75,-490.19">
        <lane id="37654_0" index="0" disallow="pedestrian tram rail_urban rail rail_electric rail_fast ship" speed="36.11" length="43.28" width="3.50" customShape="1" shape="941.34,-457.65 954.44,-468.19 957.32,-470.88 959.23,-473.05 960.92,-475.41 962.91,-478.86 968.75,-490.19"/>
    </edge>
    <edge id="37856" from="47" to="52" priority="3" type="highway.residential" spreadType="center" length="11.54">
        <lane id="37856_0" index="0" disallow="pedestrian tram rail_urban rail rail_electric rail_fast ship" speed="36.11" length="11.54" width="3.27" customShape="1" shape="979.41,-294.71 977.14,-299.17 977.07,-299.29 974.10,-304.96"/>
    </edge>
    <edge id="38166" from="44" to="50" priority="3" type="highway.residential" spreadType="center" length="15.61" shape="907.30,-472.82 924.78,-450.31">
        <lane id="38166_0" index="0" disallow="pedestrian tram rail_urban rail rail_electric rail_fast ship" speed="36.11" length="15.61" width="3.50" customShape="1" shape="907.30,-472.82 912.08,-466.65 916.86,-460.48"/>
    </edge>
    <edge id="38167" from="50" to="38" priority="3" type="highway.residential" spreadType="center" length="15.61" shape="922.03,-448.16 904.53,-470.68">
        <lane id="38167_0" index="0" disallow="pedestrian tram rail_urban rail rail_electric rail_fast ship" speed="36.11" length="15.61" width="3.50" customShape="1" shape="914.09,-458.34 909.31,-464.51 904.53,-470.68"/>
    </edge>
    <edge id="38383" from="51" to="32" priority="3" type="highway.residential" spreadType="center" length="69.99" shape="888.59,-333.11 822.63,-272.31">
        <lane id="38383_0" index="0" disallow="pedestrian tram rail_urban rail rail_electric rail_fast ship" speed="36.11" length="69.99" width="3.50" customShape="1" shape="877.65,-315.56 861.00,-301.90 846.05,-290.10 822.63,-272.31"/>
    </edge>
    <edge id="38384" from="43" to="51" priority="3" type="highway.residential" spreadType="center" length="70.03" shape="820.38,-274.99 886.22,-335.68">
        <lane id="38384_0" index="0" disallow="pedestrian tram rail_urban rail rail_electric rail_fast ship" speed="36.11" length="70.03" width="3.50" customShape="1" shape="820.38,-274.99 843.84,-292.81 858.77,-304.59 875.43,-318.26"/>
    </edge>
    <edge id="38386" from="54" to="51" priority="3" type="highway.residential" spreadType="center" length="5.25" shape="930.45,-350.61 888.06,-332.76">
        <lane id="38386_0" index="0" disallow="pedestrian tram rail_urban rail rail_electric rail_fast ship" speed="36.11" length="5.25" width="3.50" customShape="1" shape="911.54,-343.73 909.55,-342.07 907.51,-340.37"/>
    </edge>
    <edge id="38387" from="51" to="54" priority="3" type="highway.residential" spreadType="center" length="5.25" shape="886.70,-335.99 929.09,-353.83">
        <lane id="38387_0" index="0" disallow="pedestrian tram rail_urban rail rail_electric rail_fast ship" speed="36.11" length="5.25" width="3.50" customShape="1" shape="905.29,-343.07 907.31,-344.76 909.32,-346.44"/>
    </edge>
    <edge id="38389" from="39" to="54" priority="3" type="highway.residential" spreadType="center" length="70.00" shape="997.09,-410.94 930.86,-350.88">
        <lane id="38389_0" index="0" disallow="pedestrian tram rail_urban rail rail_electric rail_fast ship" speed="36.11" length="70.00" width="3.50" customShape="1" shape="997.09,-410.94 994.42,-408.87 972.25,-391.33 941.84,-367.96"/>
    </edge>
    <edge id="38390" from="54" to="25" priority="3" type="highway.residential" spreadType="center" length="69.99" shape="928.51,-353.47 994.95,-413.71">
        <lane id="38390_0" index="0" disallow="pedestrian tram rail_urban rail rail_electric rail_fast ship" speed="36.11" length="69.99" width="3.50" customShape="1" shape="939.71,-370.73 970.10,-394.10 992.27,-411.63 994.95,-413.71"/>
    </edge>
    <edge id="38412" from="54" to="52" priority="3" type="highway.residential" spreadType="center" length="40.02" shape="931.00,-353.38 969.69,-308.78">
        <lane id="38412_0" index="0" disallow="pedestrian tram rail_urban rail rail_electric rail_fast ship" speed="36.11" length="40.02" width="3.49" customShape="1" shape="939.30,-343.25 944.00,-337.34 952.34,-327.16 959.02,-319.56 965.36,-312.90"/>
    </edge>
    <edge id="38413" from="52" to="54" priority="3" type="highway.residential" spreadType="center" length="40.33" shape="967.04,-306.48 928.36,-351.09">
        <lane id="38413_0" index="0" disallow="pedestrian tram rail_urban rail rail_electric rail_fast ship" speed="36.11" length="40.33" width="3.50" customShape="1" shape="962.82,-310.49 956.45,-317.18 949.70,-324.86 941.29,-335.12 936.56,-341.07"/>
    </edge>
    <edge id="38439" from="48" to="51" priority="3" type="highway.residential" spreadType="center" length="29.56" shape="855.11,-387.58 888.87,-335.28">
        <lane id="38439_0" index="0" disallow="pedestrian tram rail_urban rail rail_electric rail_fast ship" speed="36.11" length="29.56" width="3.50" customShape="1" shape="862.09,-368.66 871.32,-357.14 880.57,-345.59"/>
    </edge>
    <edge id="38440" from="51" to="48" priority="3" type="highway.residential" spreadType="center" length="29.59" shape="885.94,-333.38 852.18,-385.69">
        <lane id="38440_0" index="0" disallow="pedestrian tram rail_urban rail rail_electric rail_fast ship" speed="36.11" length="29.59" width="3.50" customShape="1" shape="877.84,-343.40 868.59,-354.95 859.34,-366.49"/>
    </edge>
    <edge id="38442" from="40" to="48" priority="3" type="highway.residential" spreadType="center" length="10.05" shape="831.49,-406.51 854.81,-387.94">
        <lane id="38442_0" index="0" disallow="pedestrian tram rail_urban rail rail_electric rail_fast ship" speed="36.11" length="10.05" width="3.50" customShape="1" shape="831.49,-406.51 834.65,-402.62 837.83,-398.71"/>
    </edge>
    <edge id="38443" from="48" to="13" priority="3" type="highway.residential" spreadType="center" length="10.06" shape="852.63,-385.21 828.77,-404.30">
        <lane id="38443_0" index="0" disallow="pedestrian tram rail_urban rail rail_electric rail_fast ship" speed="36.11" length="10.06" width="3.50" customShape="1" shape="835.12,-396.50 831.94,-400.41 828.77,-404.30"/>
    </edge>
    <edge id="39698" from="52" to="53" priority="3" type="highway.residential" spreadType="center" length="13.00">
        <lane id="39698_0" index="0" disallow="pedestrian tram rail_urban rail rail_electric rail_fast ship" speed="36.11" length="13.00" width="3.46" customShape="1" shape="977.49,-308.19 980.57,-307.45 983.15,-306.55 984.59,-305.77 985.45,-305.09 986.15,-304.25 986.60,-303.26 986.78,-302.18 986.73,-301.09"/>
    </edge>

    <junction id="11" type="dead_end" x="868.06" y="-434.72" incLanes="37625_0" intLanes="" shape="866.68,-433.65 869.44,-435.79" rightOfWay="edgePriority"/>
    <junction id="13" type="dead_end" x="828.77" y="-404.30" incLanes="38443_0" intLanes="" shape="827.42,-403.20 830.13,-405.41" rightOfWay="edgePriority"/>
    <junction id="25" type="dead_end" x="994.95" y="-413.71" incLanes="38390_0" intLanes="" shape="993.88,-415.09 996.03,-412.33" rightOfWay="edgePriority"/>
    <junction id="32" type="dead_end" x="822.63" y="-272.31" incLanes="38383_0" intLanes="" shape="823.69,-270.91 821.57,-273.70" rightOfWay="edgePriority"/>
    <junction id="33" type="dead_end" x="870.83" y="-436.86" incLanes="" intLanes="" shape="869.44,-435.79 872.21,-437.93" rightOfWay="edgePriority"/>
    <junction id="37" type="dead_end" x="968.75" y="-490.19" incLanes="37654_0" intLanes="" shape="967.19,-490.99 970.30,-489.39" rightOfWay="edgePriority"/>
    <junction id="38" type="dead_end" x="904.53" y="-470.68" incLanes="38167_0" intLanes="" shape="903.15,-469.61 905.91,-471.75" rightOfWay="edgePriority"/>
    <junction id="39" type="dead_end" x="997.09" y="-410.94" incLanes="" intLanes="" shape="996.01,-412.32 998.16,-409.56" rightOfWay="edgePriority"/>
    <junction id="40" type="dead_end" x="831.49" y="-406.51" incLanes="" intLanes="" shape="830.13,-405.41 832.85,-407.61" rightOfWay="edgePriority"/>
    <junction id="43" type="dead_end" x="820.38" y="-274.99" incLanes="" intLanes="" shape="821.44,-273.60 819.32,-276.38" rightOfWay="edgePriority"/>