<routes>
	<vehicle depart="0.1" departLane="0" departPos="20.958334443528646" departSpeed="0.00010105519" id="38" type="bicycle">
		<route edges="38439 38383"/>
	</vehicle>
	<vehicle depart="0.1" departLane="0" departPos="19.457880283389066" departSpeed="3.6757678e-05" id="315" type="passenger">
		<route edges="38439 38383"/>
	</vehicle>
	<vehicle depart="0.1" departLane="0" departPos="11.956765550405569" departSpeed="0.00058235558" id="323" type="passenger">
		<route edges="38439 38383"/>
	</vehicle>
	<vehicle depart="0.1" departLane="0" departPos="10.230565424691253" departSpeed="0.0" id="327" type="passenger">
		<route edges="37647 38439"/>
	</vehicle>
	<vehicle depart="0.1" departLane="0" departPos="16.968661979904567" departSpeed="3.2192715" id="328" type="passenger">
		<route edges=":48_5 38439"/>
	</vehicle>
	<vehicle depart="0.1" departLane="0" departPos="21.50395799682074" departSpeed="7.380447" id="334" type="passenger">
		<route edges="38440 37648"/>
	</vehicle>
	<vehicle depart="0.1" departLane="0" departPos="29.92795978912577" departSpeed="11.211097" id="347" type="passenger">
		<route edges=":48_1 37648 37625"/>
	</vehicle>
	<vehicle depart="0.1" departLane="0" departPos="6.728321693778816" departSpeed="0.52650482" id="353" type="passenger">
		<route edges="38442 38439"/>
	</vehicle>
	<vehicle depart="0.1" departLane="0" departPos="10.66869167606947" departSpeed="7.7409382" id="350" type="motorcycle">
		<route edges=":48_4 37648 37625"/>
	</vehicle>
	<vehicle depart="0.1" departLane="0" departPos="29.45877655760129" departSpeed="0.0" id="321" type="truck">
		<route edges="38439 38383"/>
	</vehicle>
</routes>
