<!-- generated on Tue Feb  9 22:02:31 2021 by Eclipse SUMO netconvert Version 1.8.0
<configuration xmlns:xsi="http://www.w3.org/2001/XMLSchema-instance" xsi:noNamespaceSchemaLocation="http://sumo.dlr.de/xsd/netconvertConfiguration.xsd">

    <input>
        <node-files value="./converted_scenarios/scenario-factory/GRC_Perama-1_1_I-1-1/GRC_Perama-1_1_I-1-1.nod.xml"/>
        <edge-files value="./converted_scenarios/scenario-factory/GRC_Perama-1_1_I-1-1/GRC_Perama-1_1_I-1-1.edg.xml"/>
        <connection-files value="./converted_scenarios/scenario-factory/GRC_Perama-1_1_I-1-1/GRC_Perama-1_1_I-1-1.con.xml"/>
        <tllogic-files value="./converted_scenarios/scenario-factory/GRC_Perama-1_1_I-1-1/GRC_Perama-1_1_I-1-1.tll.xml"/>
        <type-files value="/home/zen/commonroad-interactive-benchmarks/install/commonroad-map-tool/crmapconverter/sumo_map/templates/DEU.typ.xml"/>
    </input>

    <output>
        <output-file value="./converted_scenarios/scenario-factory/GRC_Perama-1_1_I-1-1/GRC_Perama-1_1_I-1-1.net.xml"/>
    </output>

    <processing>
        <geometry.remove.keep-edges.explicit value="true"/>
        <geometry.avoid-overlap value="true"/>
        <offset.disable-normalization value="true"/>
    </processing>

    <junctions>
        <no-turnarounds value="true"/>
        <junctions.internal-link-detail value="20"/>
    </junctions>

    <report>
        <aggregate-warnings value="5"/>
    </report>

    <random_number>
        <seed value="1234"/>
    </random_number>

</configuration>
--><net xmlns:xsi="http://www.w3.org/2001/XMLSchema-instance" version="1.6" junctionCornerDetail="5" junctionLinkDetail="20" limitTurnSpeed="5.50" xsi:noNamespaceSchemaLocation="http://sumo.dlr.de/xsd/net_file.xsd">

    <location netOffset="0.00,0.00" convBoundary="222.29,766.15,436.73,1034.93" origBoundary="221.68,766.15,436.73,1034.93" projParameter="!"/>

    <type id="highway.bridleway" priority="1" speed="2.78" allow="pedestrian" oneway="1" width="2.00"/>
    <type id="highway.bus_guideway" priority="1" speed="27.78" allow="bus" oneway="1"/>
    <type id="highway.cycleway" priority="1" speed="8.33" allow="bicycle" oneway="0" width="1.00"/>
    <type id="highway.footway" priority="1" speed="2.78" allow="pedestrian" oneway="1" width="2.00"/>
    <type id="highway.ford" priority="1" speed="2.78" allow="army" oneway="0"/>
    <type id="highway.living_street" priority="2" speed="2.78" disallow="tram rail_urban rail rail_electric rail_fast ship" oneway="0"/>
    <type id="highway.motorway" priority="14" speed="39.44" allow="private emergency authority army vip passenger hov taxi bus coach delivery truck trailer motorcycle evehicle custom1 custom2" oneway="1"/>
    <type id="highway.motorway_link" priority="9" speed="22.22" allow="private emergency authority army vip passenger hov taxi bus coach delivery truck trailer motorcycle evehicle custom1 custom2" oneway="1"/>
    <type id="highway.path" priority="1" speed="2.78" allow="pedestrian bicycle" oneway="0" width="2.00"/>
    <type id="highway.pedestrian" priority="1" speed="2.78" allow="pedestrian" oneway="1" width="2.00"/>
    <type id="highway.primary" priority="12" speed="27.78" disallow="pedestrian tram rail_urban rail rail_electric rail_fast ship" oneway="0"/>
    <type id="highway.primary_link" priority="7" speed="22.22" disallow="pedestrian tram rail_urban rail rail_electric rail_fast ship" oneway="0"/>
    <type id="highway.raceway" priority="15" speed="83.33" allow="vip" oneway="0"/>
    <type id="highway.residential" priority="3" speed="13.89" disallow="pedestrian tram rail_urban rail rail_electric rail_fast ship" oneway="0"/>
    <type id="highway.secondary" priority="11" speed="27.78" disallow="pedestrian tram rail_urban rail rail_electric rail_fast ship" oneway="0"/>
    <type id="highway.secondary_link" priority="6" speed="22.22" disallow="pedestrian tram rail_urban rail rail_electric rail_fast ship" oneway="0"/>
    <type id="highway.service" priority="1" speed="5.56" allow="pedestrian delivery bicycle" oneway="0"/>
    <type id="highway.stairs" priority="1" speed="1.39" allow="pedestrian" oneway="1" width="2.00"/>
    <type id="highway.step" priority="1" speed="1.39" allow="pedestrian" oneway="1" width="2.00"/>
    <type id="highway.steps" priority="1" speed="1.39" allow="pedestrian" oneway="1" width="2.00"/>
    <type id="highway.tertiary" priority="10" speed="22.22" disallow="pedestrian tram rail_urban rail rail_electric rail_fast ship" oneway="0"/>
    <type id="highway.tertiary_link" priority="5" speed="22.22" disallow="pedestrian tram rail_urban rail rail_electric rail_fast ship" oneway="0"/>
    <type id="highway.track" priority="1" speed="5.56" allow="pedestrian motorcycle moped bicycle" oneway="0"/>
    <type id="highway.trunk" priority="13" speed="27.78" disallow="pedestrian bicycle tram rail_urban rail rail_electric rail_fast ship" oneway="0"/>
    <type id="highway.trunk_link" priority="8" speed="22.22" disallow="pedestrian bicycle tram rail_urban rail rail_electric rail_fast ship" oneway="0"/>
    <type id="highway.unclassified" priority="4" speed="13.89" disallow="pedestrian tram rail_urban rail rail_electric rail_fast ship" oneway="0"/>
    <type id="highway.unsurfaced" priority="1" speed="8.33" disallow="tram rail_urban rail rail_electric rail_fast ship" oneway="0"/>
    <type id="railway.highspeed" priority="21" speed="69.44" allow="rail_fast" oneway="1"/>
    <type id="railway.light_rail" priority="19" speed="27.78" allow="rail_urban" oneway="1"/>
    <type id="railway.preserved" priority="16" speed="27.78" allow="rail" oneway="1"/>
    <type id="railway.rail" priority="20" speed="44.44" allow="rail" oneway="1"/>
    <type id="railway.subway" priority="18" speed="27.78" allow="rail_urban" oneway="1"/>
    <type id="railway.tram" priority="17" speed="13.89" allow="tram" oneway="1"/>

    <edge id=":33_0" function="internal">
        <lane id=":33_0_0" index="0" disallow="pedestrian tram rail_urban rail rail_electric rail_fast ship" speed="36.11" length="0.22" width="3.50" shape="364.19,996.83 364.25,997.04"/>
    </edge>
    <edge id=":43_0" function="internal">
        <lane id=":43_0_0" index="0" disallow="pedestrian tram rail_urban rail rail_electric rail_fast ship" speed="36.11" length="3.31" width="3.50" shape="361.28,999.39 360.44,996.19"/>
    </edge>
    <edge id=":52_0" function="internal">
        <lane id=":52_0_0" index="0" disallow="pedestrian tram rail_urban rail rail_electric rail_fast ship" speed="16.96" length="73.70" width="3.50" shape="371.63,847.89 361.87,847.99 353.20,848.34 345.63,848.93 339.17,849.70 333.82,850.58 329.58,851.49 325.40,852.64 322.32,853.70 319.32,854.97 316.46,856.50 314.66,857.71 312.99,859.10 311.50,860.68 310.26,862.45 309.34,864.41 308.77,866.50 308.57,868.66 308.70,870.79"/>
    </edge>
    <edge id=":52_1" function="internal">
        <lane id=":52_1_0" index="0" disallow="pedestrian tram rail_urban rail rail_electric rail_fast ship" speed="21.33" length="82.22" width="3.50" shape="371.63,847.89 356.68,847.65 343.88,847.10 333.23,846.30 324.74,845.35 317.36,844.21 311.09,842.89 305.95,841.43 302.94,840.33 300.03,839.00 298.18,837.93 296.46,836.67 294.94,835.18 294.29,834.33 293.75,833.41 293.33,832.42"/>
    </edge>
    <edge id=":52_2" function="internal">
        <lane id=":52_2_0" index="0" disallow="pedestrian tram rail_urban rail rail_electric rail_fast ship" speed="20.76" length="77.90" width="3.50" shape="296.68,831.38 296.94,831.99 297.37,832.68 297.87,833.30 299.22,834.53 300.77,835.57 302.46,836.47 305.21,837.63 308.04,838.59 312.97,839.88 319.00,841.06 326.13,842.09 334.35,842.94 344.68,843.66 357.12,844.17 371.65,844.39"/>
    </edge>
    <edge id=":52_3" function="internal">
        <lane id=":52_3_0" index="0" disallow="pedestrian tram rail_urban rail rail_electric rail_fast ship" speed="33.61" length="83.03" width="3.50" shape="296.68,831.38 297.79,834.19 299.22,836.96 300.93,839.57 302.89,841.99 305.47,844.55 308.30,846.84 311.77,849.13 315.88,851.36 320.61,853.49 326.93,855.87 336.82,859.07 348.19,862.73 355.01,865.27 360.24,867.57 364.84,869.99 366.62,871.07"/>
    </edge>
    <edge id=":52_4" function="internal">
        <lane id=":52_4_0" index="0" disallow="pedestrian tram rail_urban rail rail_electric rail_fast ship" speed="36.11" length="41.23" width="3.50" shape="296.67,831.38 302.17,847.85 306.17,860.62 308.07,867.64 308.70,870.79"/>
    </edge>
    <edge id=":52_5" function="internal">
        <lane id=":52_5_0" index="0" disallow="pedestrian tram rail_urban rail rail_electric rail_fast ship" speed="36.11" length="40.62" width="3.50" shape="305.23,871.23 304.64,868.29 302.76,861.43 298.81,848.82 293.33,832.42"/>
    </edge>
    <edge id=":52_6" function="internal">
        <lane id=":52_6_0" index="0" disallow="pedestrian tram rail_urban rail rail_electric rail_fast ship" speed="17.62" length="79.61" width="3.50" shape="305.23,871.23 305.07,868.81 305.25,866.30 305.83,863.83 306.80,861.48 308.13,859.34 309.74,857.43 311.55,855.77 313.51,854.32 316.57,852.51 319.78,851.02 323.06,849.79 327.50,848.48 331.99,847.43 337.63,846.43 344.42,845.56 352.36,844.90 361.44,844.50 371.65,844.39"/>
    </edge>
    <edge id=":52_7" function="internal">
        <lane id=":52_7_0" index="0" disallow="pedestrian tram rail_urban rail rail_electric rail_fast ship" speed="11.92" length="50.70" width="3.50" shape="305.23,871.23 304.86,867.24 304.85,863.86 305.10,861.17 305.68,858.53 306.39,856.64 307.39,854.87 308.69,853.32 310.28,852.07 312.08,851.15 314.02,850.56 316.02,850.24 318.72,850.17 322.08,850.49 326.05,851.30 330.59,852.63 335.66,854.51 338.84,855.91"/>
    </edge>
    <edge id=":53_0" function="internal">
        <lane id=":53_0_0" index="0" disallow="pedestrian tram rail_urban rail rail_electric rail_fast ship" speed="10.52" length="19.56" width="3.50" shape="252.49,967.07 251.87,966.88 248.24,966.14 245.62,965.88 242.98,965.95 240.90,966.35 239.42,966.91 238.07,967.73 234.79,971.03"/>
    </edge>
    <edge id=":53_1" function="internal">
        <lane id=":53_1_0" index="0" disallow="pedestrian tram rail_urban rail rail_electric rail_fast ship" speed="10.81" length="39.37" width="3.50" shape="268.08,973.23 264.16,971.10 261.68,969.46 259.39,967.57 257.88,965.93 257.04,964.70 256.39,963.36 256.00,961.93 255.92,960.45 256.16,958.98 256.67,957.59 257.81,955.68 259.24,953.97 261.43,951.96 264.42,949.75 268.23,947.43 270.18,946.37"/>
    </edge>
    <edge id=":53_2" function="internal">
        <lane id=":53_2_0" index="0" disallow="pedestrian tram rail_urban rail rail_electric rail_fast ship" speed="36.11" length="43.05" width="3.50" shape="271.88,949.43 249.91,961.09 240.02,966.58 234.79,971.03"/>
    </edge>
    <edge id=":53_3" function="internal">
        <lane id=":53_3_0" index="0" disallow="pedestrian tram rail_urban rail rail_electric rail_fast ship" speed="36.11" length="43.95" width="3.50" shape="232.36,968.50 238.00,963.72 248.04,958.13 270.18,946.37"/>
    </edge>
    <edge id=":54_0" function="internal">
        <lane id=":54_0_0" index="0" disallow="pedestrian tram rail_urban rail rail_electric rail_fast ship" speed="15.58" length="34.94" width="3.50" shape="323.26,915.11 319.18,915.11 315.07,915.38 310.99,915.96 307.98,916.63 305.04,917.56 302.19,918.75 299.49,920.25 297.00,922.07 294.77,924.20 292.84,926.61 292.27,927.46"/>
    </edge>
    <edge id=":54_1" function="internal">
        <lane id=":54_1_0" index="0" disallow="pedestrian tram rail_urban rail rail_electric rail_fast ship" speed="12.14" length="34.52" width="3.50" shape="323.26,915.11 320.69,914.91 318.08,914.43 315.55,913.58 314.28,912.98 313.08,912.27 311.96,911.45 310.93,910.51 309.99,909.48 309.17,908.36 308.46,907.19 307.84,905.94 306.95,903.45 306.37,900.88 306.06,898.29 305.97,894.47 306.21,890.69"/>
    </edge>
    <edge id=":54_2" function="internal">
        <lane id=":54_2_0" index="0" disallow="pedestrian tram rail_urban rail rail_electric rail_fast ship" speed="11.13" length="28.83" width="3.50" shape="309.70,890.89 309.48,894.34 309.54,897.65 309.79,899.85 310.24,902.01 310.96,904.09 311.42,905.09 311.98,906.05 312.61,906.95 313.33,907.79 314.13,908.55 315.01,909.22 315.94,909.81 316.93,910.30 319.02,911.02 321.18,911.44 323.37,911.61"/>
    </edge>
    <edge id=":54_3" function="internal">
        <lane id=":54_3_0" index="0" disallow="pedestrian tram rail_urban rail rail_electric rail_fast ship" speed="32.33" length="40.77" width="3.50" shape="309.70,890.89 309.36,893.15 308.55,896.25 307.10,900.27 304.95,905.17 301.54,911.83 297.31,919.27 292.27,927.46"/>
    </edge>
    <edge id=":54_4" function="internal">
        <lane id=":54_4_0" index="0" disallow="pedestrian tram rail_urban rail rail_electric rail_fast ship" speed="31.59" length="39.11" width="3.50" shape="289.25,925.68 294.23,917.60 298.36,910.38 301.67,903.93 303.75,899.25 305.14,895.44 305.91,892.57 306.21,890.69"/>
    </edge>
    <edge id=":54_5" function="internal">
        <lane id=":54_5_0" index="0" disallow="pedestrian tram rail_urban rail rail_electric rail_fast ship" speed="16.37" length="38.69" width="3.50" shape="289.25,925.68 289.97,924.60 292.11,921.91 294.61,919.50 297.40,917.43 300.39,915.73 303.54,914.37 306.78,913.33 310.08,912.56 314.51,911.92 318.95,911.62 323.37,911.61"/>
    </edge>
    <edge id=":55_0" function="internal">
        <lane id=":55_0_0" index="0" disallow="pedestrian tram rail_urban rail rail_electric rail_fast ship" speed="8.48" length="14.99" width="3.50" shape="399.68,889.19 397.06,890.08 394.49,891.33 392.58,892.60 390.87,894.12 389.41,895.89 388.27,897.87 388.20,898.06"/>
    </edge>
    <edge id=":55_1" function="internal">
        <lane id=":55_1_0" index="0" disallow="pedestrian tram rail_urban rail rail_electric rail_fast ship" speed="12.23" length="19.94" width="3.50" shape="379.97,882.28 380.32,882.56 382.60,884.02 385.03,885.20 387.59,886.06 390.25,886.57 392.95,886.70 395.64,886.48 398.29,885.93 398.83,885.78"/>
    </edge>
    <edge id=":55_2" function="internal">
        <lane id=":55_2_0" index="0" disallow="pedestrian tram rail_urban rail rail_electric rail_fast ship" speed="15.78" length="16.47" width="3.50" shape="379.03,883.23 380.48,886.00 382.25,890.28 383.85,895.17 384.73,898.63"/>
    </edge>
    <edge id=":56_0" function="internal">
        <lane id=":56_0_0" index="0" disallow="pedestrian tram rail_urban rail rail_electric rail_fast ship" speed="8.05" length="15.53" width="3.50" shape="408.99,931.75 405.39,932.06 402.45,932.62 400.15,933.32 397.97,934.33 396.47,935.31 395.13,936.52 394.81,936.93"/>
    </edge>
    <edge id=":56_1" function="internal">
        <lane id=":56_1_0" index="0" disallow="pedestrian tram rail_urban rail rail_electric rail_fast ship" speed="9.35" length="17.59" width="3.50" shape="392.44,923.44 392.87,923.89 394.67,925.26 396.66,926.34 398.77,927.15 401.51,927.83 404.31,928.19 407.70,928.29 408.84,928.26"/>
    </edge>
    <edge id=":56_2" function="internal">
        <lane id=":56_2_0" index="0" disallow="pedestrian tram rail_urban rail rail_electric rail_fast ship" speed="36.11" length="13.61" width="3.50" shape="389.20,923.98 389.67,927.09 391.04,937.46"/>
    </edge>
    <edge id=":57_0" function="internal">
        <lane id=":57_0_0" index="0" disallow="pedestrian tram rail_urban rail rail_electric rail_fast ship" speed="7.95" length="15.17" width="3.50" shape="358.39,987.79 357.37,984.33 356.23,981.57 355.07,979.47 353.64,977.56 352.37,976.29 350.92,975.23 350.74,975.14"/>
    </edge>
    <edge id=":57_1" function="internal">
        <lane id=":57_1_0" index="0" disallow="pedestrian tram rail_urban rail rail_electric rail_fast ship" speed="8.16" length="15.88" width="3.50" shape="362.59,971.45 361.85,972.94 361.28,974.63 360.86,976.96 360.74,979.33 360.93,982.29 361.52,985.79 361.78,986.94"/>
    </edge>
    <edge id=":57_2" function="internal">
        <lane id=":57_2_0" index="0" disallow="pedestrian tram rail_urban rail rail_electric rail_fast ship" speed="36.11" length="13.33" width="3.50" shape="362.07,967.53 359.64,968.13 349.84,970.97 349.25,971.16"/>
    </edge>
    <edge id=":58_0" function="internal">
        <lane id=":58_0_0" index="0" disallow="pedestrian tram rail_urban rail rail_electric rail_fast ship" speed="36.11" length="12.66" width="3.50" shape="401.50,963.61 388.84,963.81"/>
    </edge>
    <edge id=":58_1" function="internal">
        <lane id=":58_1_0" index="0" disallow="pedestrian tram rail_urban rail rail_electric rail_fast ship" speed="36.11" length="13.79" width="3.50" shape="393.64,956.56 393.76,957.33 393.88,958.08 394.01,958.81 394.15,959.53 394.30,960.23 394.46,960.92 394.62,961.61 394.78,962.29 394.96,962.96 395.13,963.63 395.31,964.30 395.50,964.98 395.69,965.65 395.87,966.34 396.07,967.04 396.26,967.74 396.45,968.46 396.65,969.20 396.84,969.96"/>
    </edge>
    <edge id=":58_2" function="internal">
        <lane id=":58_2_0" index="0" disallow="pedestrian tram rail_urban rail rail_electric rail_fast ship" speed="4.99" length="4.80" width="3.50" shape="391.39,956.87 390.67,958.15 389.58,959.51 388.41,960.58"/>
    </edge>

    <edge id="62472" from="50" to="56" priority="3" type="highway.residential" spreadType="center" length="24.33" shape="433.25,931.73 399.40,932.07">
        <lane id="62472_0" index="0" disallow="pedestrian tram rail_urban rail rail_electric rail_fast ship" speed="36.11" length="24.33" width="3.50" customShape="1" shape="433.25,931.73 430.22,931.63 419.60,931.48 408.93,931.75"/>
    </edge>
    <edge id="62473" from="56" to="41" priority="3" type="highway.residential" spreadType="center" length="24.54" shape="399.37,928.58 433.37,928.23">
        <lane id="62473_0" index="0" disallow="pedestrian tram rail_urban rail rail_electric rail_fast ship" speed="36.11" length="24.54" width="3.50" customShape="1" shape="408.84,928.26 419.58,927.98 430.31,928.13 433.37,928.23"/>
    </edge>
    <edge id="62501" from="53" to="19" priority="3" type="highway.residential" spreadType="center" length="65.98" shape="258.22,961.19 225.99,1034.93">
        <lane id="62501_0" index="0" disallow="pedestrian tram rail_urban rail rail_electric rail_fast ship" speed="36.11" length="65.98" width="3.50" customShape="1" shape="234.79,971.03 233.89,972.03 231.85,974.86 230.15,977.90 228.80,981.12 227.63,984.93 226.68,989.31 226.08,993.75 225.69,999.22 225.15,1015.16 225.24,1021.14 225.86,1033.08 225.99,1034.93"/>
    </edge>
    <edge id="62502" from="28" to="53" priority="3" type="highway.residential" spreadType="center" length="65.72" shape="222.29,1031.86 255.03,959.77">
        <lane id="62502_0" index="0" disallow="pedestrian tram rail_urban rail rail_electric rail_fast ship" speed="36.11" length="65.72" width="3.49" customShape="1" shape="222.29,1031.86 221.71,1020.27 221.68,1014.17 222.25,997.97 222.72,992.36 223.41,987.76 224.48,983.20 225.78,979.22 227.27,975.84 229.13,972.62 231.33,969.64 232.36,968.50"/>
    </edge>
    <edge id="62649" from="58" to="57" priority="3" type="highway.residential" spreadType="center" length="27.02">
        <lane id="62649_0" index="0" disallow="pedestrian tram rail_urban rail rail_electric rail_fast ship" speed="36.11" length="27.02" width="3.50" customShape="1" shape="388.73,963.02 375.20,964.82 361.95,966.58"/>
    </edge>
    <edge id="62651" from="57" to="53" priority="3" type="highway.residential" spreadType="center" length="102.21">
        <lane id="62651_0" index="0" disallow="pedestrian tram rail_urban rail rail_electric rail_fast ship" speed="36.11" length="102.21" width="3.50" customShape="1" shape="349.06,970.67 333.42,976.53 330.64,977.80 328.50,979.18 325.20,981.57 323.42,982.56 321.50,983.23 319.01,983.78 315.97,984.04 312.40,983.94 302.78,982.88 294.72,981.64 288.23,980.31 282.32,978.75 276.51,976.83 271.31,974.74 252.92,966.15"/>
    </edge>
    <edge id="62661" from="54" to="53" priority="3" type="highway.residential" spreadType="center" length="30.65" shape="308.61,911.46 257.83,961.77">
        <lane id="62661_0" index="0" disallow="pedestrian tram rail_urban rail rail_electric rail_fast ship" speed="36.11" length="30.65" width="3.50" customShape="1" shape="292.27,927.46 287.97,934.75 285.67,938.30 283.70,940.79 281.48,943.05 279.04,945.07 275.97,947.14 271.83,949.46"/>
    </edge>
    <edge id="62662" from="53" to="54" priority="3" type="highway.residential" spreadType="center" length="28.83" shape="255.37,959.28 306.15,908.98">
        <lane id="62662_0" index="0" disallow="pedestrian tram rail_urban rail rail_electric rail_fast ship" speed="36.11" length="28.83" width="3.50" customShape="1" shape="270.18,946.37 274.12,944.17 276.96,942.26 279.19,940.41 281.20,938.34 282.98,936.04 285.13,932.67 289.30,925.60"/>
    </edge>
    <edge id="62664" from="52" to="54" priority="3" type="highway.residential" spreadType="center" length="20.16" shape="332.16,853.37 308.95,910.95">
        <lane id="62664_0" index="0" disallow="pedestrian tram rail_urban rail rail_electric rail_fast ship" speed="36.11" length="20.16" width="3.50" customShape="1" shape="308.70,870.79 309.07,873.92 309.73,882.21 309.90,887.40 309.70,890.89"/>
    </edge>
    <edge id="62665" from="54" to="52" priority="3" type="highway.residential" spreadType="center" length="19.53" shape="305.71,909.64 328.92,852.07">
        <lane id="62665_0" index="0" disallow="pedestrian tram rail_urban rail rail_electric rail_fast ship" speed="36.11" length="19.53" width="3.50" customShape="1" shape="306.21,890.69 306.40,887.28 306.23,882.31 305.59,874.26 305.23,871.21"/>
    </edge>
    <edge id="62667" from="31" to="52" priority="3" type="highway.residential" spreadType="center" length="66.29" shape="285.51,766.15 332.09,851.91">
        <lane id="62667_0" index="0" disallow="pedestrian tram rail_urban rail rail_electric rail_fast ship" speed="36.11" length="66.29" width="3.50" customShape="1" shape="285.51,766.15 285.86,768.13 287.33,777.54 290.22,801.44 291.61,810.87 293.03,818.25 294.72,825.07 296.67,831.38"/>
    </edge>
    <edge id="62668" from="52" to="20" priority="3" type="highway.residential" spreadType="center" length="66.73" shape="329.02,853.58 282.06,766.76">
        <lane id="62668_0" index="0" disallow="pedestrian tram rail_urban rail rail_electric rail_fast ship" speed="36.11" length="66.73" width="3.50" customShape="1" shape="293.33,832.42 291.37,826.08 289.65,819.14 288.19,811.65 286.78,802.12 283.88,778.13 282.41,768.72 282.06,766.76"/>
    </edge>
    <edge id="62700" from="52" to="23" priority="3" type="highway.residential" spreadType="center" length="65.05" shape="330.41,850.98 436.70,844.70">
        <lane id="62700_0" index="0" disallow="pedestrian tram rail_urban rail rail_electric rail_fast ship" speed="36.11" length="65.05" width="3.50" customShape="1" shape="371.65,844.39 404.16,844.55 436.70,844.70"/>
    </edge>
    <edge id="62701" from="48" to="52" priority="3" type="highway.residential" spreadType="center" length="65.03" shape="436.66,848.20 330.62,854.47">
        <lane id="62701_0" index="0" disallow="pedestrian tram rail_urban rail rail_electric rail_fast ship" speed="36.11" length="65.03" width="3.50" customShape="1" shape="436.66,848.20 404.15,848.04 371.63,847.89"/>
    </edge>
    <edge id="62703" from="52" to="55" priority="3" type="highway.residential" spreadType="center" length="48.94">
        <lane id="62703_0" index="0" disallow="pedestrian tram rail_urban rail rail_electric rail_fast ship" speed="36.11" length="48.94" width="3.50" customShape="1" shape="340.70,853.20 370.04,873.43 373.26,876.06 379.79,882.46"/>
    </edge>
    <edge id="62705" from="55" to="56" priority="3" type="highway.residential" spreadType="center" length="25.73">
        <lane id="62705_0" index="0" disallow="pedestrian tram rail_urban rail rail_electric rail_fast ship" speed="36.11" length="25.73" width="3.50" customShape="1" shape="385.19,898.56 387.38,911.87 389.37,923.95"/>
    </edge>
    <edge id="62707" from="56" to="58" priority="3" type="highway.residential" spreadType="center" length="19.28">
        <lane id="62707_0" index="0" disallow="pedestrian tram rail_urban rail rail_electric rail_fast ship" speed="36.11" length="19.28" width="3.50" customShape="1" shape="390.97,937.47 392.44,947.91 393.64,956.56"/>
    </edge>
    <edge id="62752" from="54" to="8" priority="3" type="highway.residential" spreadType="center" length="39.20" shape="308.24,908.74 348.17,934.34">
        <lane id="62752_0" index="0" disallow="pedestrian tram rail_urban rail rail_electric rail_fast ship" speed="36.11" length="39.20" width="3.50" customShape="1" shape="323.37,911.61 331.55,911.88 335.36,911.91 336.97,912.18 337.98,912.57 338.93,913.11 339.78,913.78 340.17,914.17 340.84,915.02 341.34,915.99 342.06,918.61 343.96,923.13 348.17,934.34"/>
    </edge>
    <edge id="62753" from="12" to="54" priority="3" type="highway.residential" spreadType="center" length="35.05" shape="344.89,935.57 306.38,911.69">
        <lane id="62753_0" index="0" disallow="pedestrian tram rail_urban rail rail_electric rail_fast ship" speed="36.11" length="35.05" width="3.48" customShape="1" shape="344.89,935.57 340.93,924.98 339.12,920.70 338.27,918.04 337.98,917.29 337.67,916.69 337.58,916.56 337.08,916.09 336.52,915.74 335.89,915.49 334.51,915.41 331.03,915.36 323.25,915.11"/>
    </edge>
    <edge id="62812" from="43" to="57" priority="3" type="highway.residential" spreadType="center" length="8.67" shape="360.83,997.80 356.25,978.88">
        <lane id="62812_0" index="0" disallow="pedestrian tram rail_urban rail rail_electric rail_fast ship" speed="36.11" length="8.67" width="3.50" customShape="1" shape="360.44,996.19 359.60,992.77 358.38,987.77"/>
    </edge>
    <edge id="62813" from="57" to="33" priority="3" type="highway.residential" spreadType="center" length="10.18" shape="359.64,978.06 364.22,996.94">
        <lane id="62813_0" index="0" disallow="pedestrian tram rail_urban rail rail_electric rail_fast ship" speed="36.11" length="10.18" width="3.50" customShape="1" shape="361.78,986.94 363.00,991.94 364.19,996.83"/>
    </edge>
    <edge id="62832" from="51" to="58" priority="3" type="highway.residential" spreadType="center" length="35.24">
        <lane id="62832_0" index="0" disallow="pedestrian tram rail_urban rail rail_electric rail_fast ship" speed="36.11" length="35.24" width="3.50" customShape="1" shape="436.73,962.37 425.48,962.85 401.52,963.87"/>
    </edge>
    <edge id="62891" from="49" to="55" priority="3" type="highway.residential" spreadType="center" length="32.67" shape="431.54,892.84 390.22,892.60">
        <lane id="62891_0" index="0" disallow="pedestrian tram rail_urban rail rail_electric rail_fast ship" speed="36.11" length="32.67" width="3.50" customShape="1" shape="431.54,892.84 422.88,890.84 415.77,888.77 412.41,887.97 409.48,887.63 407.01,887.66 404.08,888.08 399.67,889.18"/>
    </edge>
    <edge id="62892" from="55" to="34" priority="3" type="highway.residential" spreadType="center" length="34.30" shape="390.24,889.11 432.32,889.43">
        <lane id="62892_0" index="0" disallow="pedestrian tram rail_urban rail rail_electric rail_fast ship" speed="36.11" length="34.30" width="3.50" customShape="1" shape="398.83,885.78 403.38,884.65 406.57,884.19 409.32,884.12 412.56,884.45 416.19,885.26 423.48,887.38 432.32,889.43"/>
    </edge>
    <edge id="63458" from="47" to="43" priority="3" type="highway.residential" spreadType="center" length="31.98">
        <lane id="63458_0" index="0" disallow="pedestrian tram rail_urban rail rail_electric rail_fast ship" speed="36.11" length="31.98" width="3.50" customShape="1" shape="386.52,1012.92 385.28,1013.12 381.57,1013.50 379.02,1013.51 376.46,1013.28 373.91,1012.75 371.45,1011.89 370.22,1011.30 369.07,1010.62 367.98,1009.85 366.95,1008.99 366.00,1008.06 365.11,1007.03 363.64,1004.90 362.44,1002.59 361.52,1000.20 361.28,999.39"/>
    </edge>
    <edge id="63464" from="33" to="44" priority="3" type="highway.residential" spreadType="center" length="28.23">
        <lane id="63464_0" index="0" disallow="pedestrian tram rail_urban rail rail_electric rail_fast ship" speed="36.11" length="28.23" width="3.50" customShape="1" shape="364.25,997.04 364.82,999.03 365.61,1001.06 366.62,1002.99 367.87,1004.78 368.59,1005.60 369.37,1006.36 370.21,1007.05 371.11,1007.67 372.05,1008.22 373.03,1008.68 375.10,1009.39 377.23,1009.82 379.40,1010.00 381.58,1009.98 384.84,1009.65 385.92,1009.47"/>
    </edge>
    <edge id="63487" from="58" to="59" priority="3" type="highway.residential" spreadType="center" length="13.16">
        <lane id="63487_0" index="0" disallow="pedestrian tram rail_urban rail rail_electric rail_fast ship" speed="36.11" length="13.16" width="3.50" customShape="1" shape="396.84,969.96 398.07,974.84 400.31,982.65"/>
    </edge>

    <junction id="12" type="dead_end" x="344.89" y="935.57" incLanes="" intLanes="" shape="346.52,934.96 343.26,936.18" rightOfWay="edgePriority"/>
    <junction id="19" type="dead_end" x="225.99" y="1034.93" incLanes="62501_0" intLanes="" shape="227.73,1034.81 224.24,1035.05" rightOfWay="edgePriority"/>
    <junction id="20" type="dead_end" x="282.06" y="766.76" incLanes="62668_0" intLanes="" shape="280.34,767.06 283.79,766.45" rightOfWay="edgePriority"/>
    <junction id="23" type="dead_end" x="436.70" y="844.70" incLanes="62700_0" intLanes="" shape="436.71,842.95 436.69,846.45" rightOfWay="edgePriority"/>
    <junction id="28" type="dead_end" x="222.29" y="1031.86" incLanes="" intLanes="" shape="224.03,1031.77 220.55,1031.95" rightOfWay="edgePriority"/>
    <junction id="31" type="dead_end" x="285.51" y="766.15" incLanes="" intLanes="" shape="283.79,766.45 287.23,765.85" rightOfWay="edgePriority"/>
    <junction id="33" type="priority" x="364.22" y="996.94" incLanes="62813_0" intLanes=":33_0_0" shape="362.57,997.52 365.93,996.56 365.89,996.42 362.49,997.25" rightOfWay="edgePriority">