<routes>
	<vehicle depart="0.1" departLane="0" departPos="56.22857280046021" departSpeed="0.53647204" id="38" type="bicycle">
		<route edges="31163 31204"/>
	</vehicle>
	<vehicle depart="0.1" departLane="0" departPos="9.400674145477947" departSpeed="0.26854961" id="310" type="bicycle">
		<route edges="31204 31207"/>
	</vehicle>
	<vehicle depart="0.1" departLane="0" departPos="47.81175799092246" departSpeed="1.3941306" id="320" type="passenger">
		<route edges="31163 31204"/>
	</vehicle>
	<vehicle depart="0.1" departLane="0" departPos="57.28152614112353" departSpeed="1.891796" id="325" type="passenger">
		<route edges="31163 31204"/>
	</vehicle>
	<vehicle depart="0.1" departLane="0" departPos="9.982920635013977" departSpeed="3.6473165" id="341" type="passenger">
		<route edges=":31_3 31204"/>
	</vehicle>
	<vehicle depart="0.1" departLane="0" departPos="36.143302757374606" departSpeed="4.1239753" id="346" type="passenger">
		<route edges="31201 31162"/>
	</vehicle>
	<vehicle depart="0.1" departLane="0" departPos="29.902186311312924" departSpeed="4.4734116" id="348" type="passenger">
		<route edges="31201 31162"/>
	</vehicle>
</routes>
