<!-- generated on Tue Feb  9 22:09:38 2021 by Eclipse SUMO netconvert Version 1.8.0
<configuration xmlns:xsi="http://www.w3.org/2001/XMLSchema-instance" xsi:noNamespaceSchemaLocation="http://sumo.dlr.de/xsd/netconvertConfiguration.xsd">

    <input>
        <node-files value="./converted_scenarios/scenario-factory/DEU_Bilderstoeckchen-2_3_I-1-1/DEU_Bilderstoeckchen-2_3_I-1-1.nod.xml"/>
        <edge-files value="./converted_scenarios/scenario-factory/DEU_Bilderstoeckchen-2_3_I-1-1/DEU_Bilderstoeckchen-2_3_I-1-1.edg.xml"/>
        <connection-files value="./converted_scenarios/scenario-factory/DEU_Bilderstoeckchen-2_3_I-1-1/DEU_Bilderstoeckchen-2_3_I-1-1.con.xml"/>
        <tllogic-files value="./converted_scenarios/scenario-factory/DEU_Bilderstoeckchen-2_3_I-1-1/DEU_Bilderstoeckchen-2_3_I-1-1.tll.xml"/>
        <type-files value="/home/zen/commonroad-interactive-benchmarks/install/commonroad-map-tool/crmapconverter/sumo_map/templates/DEU.typ.xml"/>
    </input>

    <output>
        <output-file value="./converted_scenarios/scenario-factory/DEU_Bilderstoeckchen-2_3_I-1-1/DEU_Bilderstoeckchen-2_3_I-1-1.net.xml"/>
    </output>

    <processing>
        <geometry.remove.keep-edges.explicit value="true"/>
        <geometry.avoid-overlap value="true"/>
        <offset.disable-normalization value="true"/>
    </processing>

    <junctions>
        <no-turnarounds value="true"/>
        <junctions.internal-link-detail value="20"/>
    </junctions>

    <report>
        <aggregate-warnings value="5"/>
    </report>

    <random_number>
        <seed value="1234"/>
    </random_number>

</configuration>
--><net xmlns:xsi="http://www.w3.org/2001/XMLSchema-instance" version="1.6" junctionCornerDetail="5" junctionLinkDetail="20" limitTurnSpeed="5.50" xsi:noNamespaceSchemaLocation="http://sumo.dlr.de/xsd/net_file.xsd">

    <location netOffset="0.00,0.00" convBoundary="223.86,89.18,475.27,243.17" origBoundary="223.86,89.18,475.27,246.18" projParameter="!"/>

    <type id="highway.bridleway" priority="1" speed="2.78" allow="pedestrian" oneway="1" width="2.00"/>
    <type id="highway.bus_guideway" priority="1" speed="27.78" allow="bus" oneway="1"/>
    <type id="highway.cycleway" priority="1" speed="8.33" allow="bicycle" oneway="0" width="1.00"/>
    <type id="highway.footway" priority="1" speed="2.78" allow="pedestrian" oneway="1" width="2.00"/>
    <type id="highway.ford" priority="1" speed="2.78" allow="army" oneway="0"/>
    <type id="highway.living_street" priority="2" speed="2.78" disallow="tram rail_urban rail rail_electric rail_fast ship" oneway="0"/>
    <type id="highway.motorway" priority="14" speed="39.44" allow="private emergency authority army vip passenger hov taxi bus coach delivery truck trailer motorcycle evehicle custom1 custom2" oneway="1"/>
    <type id="highway.motorway_link" priority="9" speed="22.22" allow="private emergency authority army vip passenger hov taxi bus coach delivery truck trailer motorcycle evehicle custom1 custom2" oneway="1"/>
    <type id="highway.path" priority="1" speed="2.78" allow="pedestrian bicycle" oneway="0" width="2.00"/>
    <type id="highway.pedestrian" priority="1" speed="2.78" allow="pedestrian" oneway="1" width="2.00"/>
    <type id="highway.primary" priority="12" speed="27.78" disallow="pedestrian tram rail_urban rail rail_electric rail_fast ship" oneway="0"/>
    <type id="highway.primary_link" priority="7" speed="22.22" disallow="pedestrian tram rail_urban rail rail_electric rail_fast ship" oneway="0"/>
    <type id="highway.raceway" priority="15" speed="83.33" allow="vip" oneway="0"/>
    <type id="highway.residential" priority="3" speed="13.89" disallow="pedestrian tram rail_urban rail rail_electric rail_fast ship" oneway="0"/>
    <type id="highway.secondary" priority="11" speed="27.78" disallow="pedestrian tram rail_urban rail rail_electric rail_fast ship" oneway="0"/>
    <type id="highway.secondary_link" priority="6" speed="22.22" disallow="pedestrian tram rail_urban rail rail_electric rail_fast ship" oneway="0"/>
    <type id="highway.service" priority="1" speed="5.56" allow="pedestrian delivery bicycle" oneway="0"/>
    <type id="highway.stairs" priority="1" speed="1.39" allow="pedestrian" oneway="1" width="2.00"/>
    <type id="highway.step" priority="1" speed="1.39" allow="pedestrian" oneway="1" width="2.00"/>
    <type id="highway.steps" priority="1" speed="1.39" allow="pedestrian" oneway="1" width="2.00"/>
    <type id="highway.tertiary" priority="10" speed="22.22" disallow="pedestrian tram rail_urban rail rail_electric rail_fast ship" oneway="0"/>
    <type id="highway.tertiary_link" priority="5" speed="22.22" disallow="pedestrian tram rail_urban rail rail_electric rail_fast ship" oneway="0"/>
    <type id="highway.track" priority="1" speed="5.56" allow="pedestrian motorcycle moped bicycle" oneway="0"/>
    <type id="highway.trunk" priority="13" speed="27.78" disallow="pedestrian bicycle tram rail_urban rail rail_electric rail_fast ship" oneway="0"/>
    <type id="highway.trunk_link" priority="8" speed="22.22" disallow="pedestrian bicycle tram rail_urban rail rail_electric rail_fast ship" oneway="0"/>
    <type id="highway.unclassified" priority="4" speed="13.89" disallow="pedestrian tram rail_urban rail rail_electric rail_fast ship" oneway="0"/>
    <type id="highway.unsurfaced" priority="1" speed="8.33" disallow="tram rail_urban rail rail_electric rail_fast ship" oneway="0"/>
    <type id="railway.highspeed" priority="21" speed="69.44" allow="rail_fast" oneway="1"/>
    <type id="railway.light_rail" priority="19" speed="27.78" allow="rail_urban" oneway="1"/>
    <type id="railway.preserved" priority="16" speed="27.78" allow="rail" oneway="1"/>
    <type id="railway.rail" priority="20" speed="44.44" allow="rail" oneway="1"/>
    <type id="railway.subway" priority="18" speed="27.78" allow="rail_urban" oneway="1"/>
    <type id="railway.tram" priority="17" speed="13.89" allow="tram" oneway="1"/>

    <edge id=":29_0" function="internal">
        <lane id=":29_0_0" index="0" disallow="pedestrian tram rail_urban rail rail_electric rail_fast ship" speed="36.11" length="39.47" width="3.50" shape="315.21,159.58 314.89,161.54 314.48,165.59 314.39,169.64 314.63,174.76 315.93,187.23 316.43,193.57 316.51,198.91"/>
    </edge>
    <edge id=":29_1" function="internal">
        <lane id=":29_1_0" index="0" disallow="pedestrian tram rail_urban rail rail_electric rail_fast ship" speed="12.05" length="34.77" width="3.50" shape="315.21,159.58 314.67,162.08 313.58,165.75 312.61,168.18 311.39,170.53 309.90,172.72 308.99,173.78 308.01,174.75 306.94,175.63 305.78,176.41 304.55,177.08 303.25,177.61 301.92,178.02 300.57,178.29 299.17,178.45 296.51,178.46 293.88,178.13 291.33,177.54"/>
    </edge>
    <edge id=":29_2" function="internal">
        <lane id=":29_2_0" index="0" disallow="pedestrian tram rail_urban rail rail_electric rail_fast ship" speed="11.02" length="28.91" width="3.50" shape="292.26,174.17 294.42,174.67 296.63,174.93 298.85,174.91 299.95,174.77 301.04,174.53 302.10,174.19 303.11,173.75 304.08,173.20 304.99,172.57 305.84,171.84 306.62,171.05 307.33,170.20 308.56,168.34 309.56,166.36 310.37,164.29 311.31,161.09 311.78,158.90"/>
    </edge>
    <edge id=":29_3" function="internal">
        <lane id=":29_3_0" index="0" disallow="pedestrian tram rail_urban rail rail_electric rail_fast ship" speed="13.96" length="37.65" width="3.50" shape="292.26,174.17 296.89,175.63 300.28,176.98 303.56,178.57 306.67,180.47 308.62,181.93 310.42,183.56 312.05,185.36 313.46,187.34 314.63,189.47 315.52,191.74 316.12,194.09 316.44,196.50 316.51,198.91"/>
    </edge>
    <edge id=":29_4" function="internal">
        <lane id=":29_4_0" index="0" disallow="pedestrian tram rail_urban rail rail_electric rail_fast ship" speed="13.06" length="32.90" width="3.50" shape="313.01,198.73 312.95,196.76 312.66,194.71 312.13,192.71 311.36,190.81 310.34,189.01 309.11,187.34 307.68,185.81 306.09,184.42 304.37,183.16 301.58,181.49 298.62,180.08 295.55,178.87 291.33,177.54"/>
    </edge>
    <edge id=":29_5" function="internal">
        <lane id=":29_5_0" index="0" disallow="pedestrian tram rail_urban rail rail_electric rail_fast ship" speed="36.11" length="39.97" width="3.50" shape="313.01,198.73 312.93,193.58 312.44,187.27 311.15,174.68 310.91,169.41 311.01,165.20 311.43,161.00 311.78,158.90"/>
    </edge>
    <edge id=":30_0" function="internal">
        <lane id=":30_0_0" index="0" disallow="pedestrian tram rail_urban rail rail_electric rail_fast ship" speed="11.39" length="29.52" width="3.50" shape="345.56,116.03 343.43,115.49 341.27,115.13 339.09,114.98 336.91,115.09 334.77,115.50 333.72,115.84 332.72,116.26 331.74,116.76 330.82,117.34 329.95,118.00 328.37,119.51 327.01,121.22 325.86,123.08 324.89,125.04 323.72,128.10 323.40,129.15"/>
    </edge>
    <edge id=":30_1" function="internal">
        <lane id=":30_1_0" index="0" disallow="pedestrian tram rail_urban rail rail_electric rail_fast ship" speed="36.11" length="38.98" width="3.50" shape="345.56,116.03 335.69,113.26 321.79,109.70 307.78,106.48"/>
    </edge>
    <edge id=":30_2" function="internal">
        <lane id=":30_2_0" index="0" disallow="pedestrian tram rail_urban rail rail_electric rail_fast ship" speed="36.11" length="39.16" width="3.50" shape="308.55,103.07 322.62,106.30 336.60,109.88 346.51,112.66"/>
    </edge>
    <edge id=":30_3" function="internal">
        <lane id=":30_3_0" index="0" disallow="pedestrian tram rail_urban rail rail_electric rail_fast ship" speed="12.08" length="35.04" width="3.50" shape="308.55,103.07 311.17,103.73 313.72,104.60 316.17,105.71 318.47,107.12 319.53,107.95 320.53,108.86 321.44,109.85 322.25,110.93 322.95,112.08 323.54,113.29 324.02,114.55 324.38,115.85 324.63,117.17 324.85,119.86 324.73,122.55 324.35,125.22 323.40,129.15"/>
    </edge>
    <edge id=":30_4" function="internal">
        <lane id=":30_4_0" index="0" disallow="pedestrian tram rail_urban rail rail_electric rail_fast ship" speed="11.07" length="29.22" width="3.50" shape="320.04,128.18 320.87,124.73 321.20,122.46 321.30,120.19 321.12,117.93 320.92,116.89 320.64,115.84 320.26,114.83 319.80,113.87 319.25,112.97 318.61,112.11 317.88,111.32 317.09,110.59 316.25,109.93 314.33,108.74 312.26,107.81 310.08,107.06 307.78,106.48"/>
    </edge>
    <edge id=":30_5" function="internal">
        <lane id=":30_5_0" index="0" disallow="pedestrian tram rail_urban rail rail_electric rail_fast ship" speed="12.38" length="35.08" width="3.50" shape="320.04,128.18 320.42,126.94 321.75,123.45 322.89,121.15 324.26,118.96 325.90,116.92 327.80,115.12 328.90,114.30 330.04,113.59 331.24,112.97 332.48,112.46 333.79,112.05 336.37,111.57 338.98,111.44 341.56,111.62 344.08,112.05 346.51,112.66"/>
    </edge>
    <edge id=":31_0" function="internal">
        <lane id=":31_0_0" index="0" disallow="pedestrian tram rail_urban rail rail_electric rail_fast ship" speed="10.56" length="30.49" width="3.50" shape="380.11,141.93 381.04,139.78 381.79,137.56 382.29,135.27 382.42,134.10 382.45,132.93 382.36,131.76 382.15,130.61 381.79,129.49 381.30,128.43 380.68,127.44 379.94,126.53 379.10,125.71 378.18,124.99 377.20,124.34 375.11,123.28 372.92,122.46 370.66,121.83 367.19,121.16"/>
    </edge>
    <edge id=":31_1" function="internal">
        <lane id=":31_1_0" index="0" disallow="pedestrian tram rail_urban rail rail_electric rail_fast ship" speed="18.51" length="39.31" width="3.50" shape="380.11,141.93 382.64,136.92 385.47,132.07 387.99,128.35 390.78,124.83 393.07,122.36 395.56,120.10 398.26,118.08 401.18,116.40 403.23,115.50 405.36,114.80 406.47,114.52"/>
    </edge>
    <edge id=":31_2" function="internal">
        <lane id=":31_2_0" index="0" disallow="pedestrian tram rail_urban rail rail_electric rail_fast ship" speed="17.76" length="36.16" width="3.50" shape="407.25,117.93 406.28,118.17 404.38,118.80 402.58,119.61 399.97,121.15 397.54,122.99 395.29,125.08 393.20,127.36 390.64,130.66 388.30,134.14 385.65,138.71 383.27,143.43"/>
    </edge>
    <edge id=":31_3" function="internal">
        <lane id=":31_3_0" index="0" disallow="pedestrian tram rail_urban rail rail_electric rail_fast ship" speed="36.11" length="40.40" width="3.50" shape="407.25,117.93 398.88,119.62 391.54,120.77 385.21,121.46 378.85,121.81 373.54,121.76 369.31,121.44 367.19,121.16"/>
    </edge>
    <edge id=":31_4" function="internal">
        <lane id=":31_4_0" index="0" disallow="pedestrian tram rail_urban rail rail_electric rail_fast ship" speed="36.11" length="39.05" width="3.50" shape="367.75,117.70 369.72,117.96 373.78,118.27 378.89,118.31 385.04,117.97 391.18,117.29 398.33,116.16 406.47,114.52"/>
    </edge>
    <edge id=":31_5" function="internal">
        <lane id=":31_5_0" index="0" disallow="pedestrian tram rail_urban rail rail_electric rail_fast ship" speed="11.63" length="37.21" width="3.50" shape="367.75,117.70 371.72,118.48 374.38,119.22 376.99,120.21 379.49,121.51 380.72,122.33 381.87,123.26 382.93,124.32 383.87,125.50 384.66,126.80 385.29,128.20 385.73,129.66 385.98,131.14 386.08,132.62 386.03,134.09 385.86,135.55 385.25,138.28 384.36,140.91 383.27,143.43"/>
    </edge>

    <edge id="31119" from="26" to="29" priority="3" type="highway.residential" spreadType="center" length="70.00" shape="224.79,155.51 307.15,176.31">
        <lane id="31119_0" index="0" disallow="pedestrian tram rail_urban rail rail_electric rail_fast ship" speed="36.11" length="70.00" width="3.50" customShape="1" shape="224.79,155.51 248.15,161.97 292.26,174.17"/>
    </edge>
    <edge id="31120" from="29" to="16" priority="3" type="highway.residential" spreadType="center" length="70.00" shape="306.29,179.70 223.86,158.89">
        <lane id="31120_0" index="0" disallow="pedestrian tram rail_urban rail rail_electric rail_fast ship" speed="36.11" length="70.00" width="3.50" customShape="1" shape="291.33,177.54 247.22,165.35 223.86,158.89"/>
    </edge>
    <edge id="31144" from="29" to="17" priority="3" type="highway.residential" spreadType="center" length="70.00" shape="308.29,178.68 279.08,243.17">
        <lane id="31144_0" index="0" disallow="pedestrian tram rail_urban rail rail_electric rail_fast ship" speed="36.11" length="70.00" width="3.50" customShape="1" shape="316.51,198.91 316.35,202.02 315.78,207.14 314.93,211.71 313.74,216.19 311.88,221.55 309.57,227.29 307.33,231.94 305.01,235.96 302.37,239.78 300.11,242.59 299.06,243.72 298.28,244.40 296.99,245.25 295.56,245.83 294.04,246.13 291.98,246.18 289.94,245.88 285.48,244.63 279.94,243.38 279.08,243.17"/>
    </edge>
    <edge id="31145" from="27" to="29" priority="3" type="highway.residential" spreadType="center" length="70.14" shape="273.67,238.24 305.15,177.15">
        <lane id="31145_0" index="0" disallow="pedestrian tram rail_urban rail rail_electric rail_fast ship" speed="36.11" length="70.14" width="3.50" customShape="1" shape="273.67,238.24 278.68,239.50 284.11,240.73 288.65,241.88 290.50,242.29 292.28,242.51 293.50,242.50 294.62,242.30 295.63,241.90 296.19,241.54 297.13,240.67 299.30,238.03 301.85,234.40 304.09,230.57 306.26,226.12 308.52,220.56 310.33,215.38 311.48,211.09 312.30,206.73 312.86,201.79 313.02,198.73"/>
    </edge>
    <edge id="31147" from="30" to="29" priority="3" type="highway.residential" spreadType="center" length="31.60" shape="326.99,116.39 308.36,178.50">
        <lane id="31147_0" index="0" disallow="pedestrian tram rail_urban rail rail_electric rail_fast ship" speed="36.11" length="31.60" width="3.50" customShape="1" shape="323.40,129.15 321.41,135.98 316.42,154.12 315.20,159.66"/>
    </edge>
    <edge id="31148" from="29" to="30" priority="3" type="highway.residential" spreadType="center" length="31.83" shape="305.01,177.49 323.64,115.38">
        <lane id="31148_0" index="0" disallow="pedestrian tram rail_urban rail rail_electric rail_fast ship" speed="36.11" length="31.83" width="3.50" customShape="1" shape="311.78,158.90 313.01,153.34 318.04,135.05 320.04,128.17"/>
    </edge>
    <edge id="31162" from="31" to="22" priority="3" type="highway.residential" spreadType="center" length="69.99" shape="386.90,125.33 409.10,174.02">
        <lane id="31162_0" index="0" disallow="pedestrian tram rail_urban rail rail_electric rail_fast ship" speed="36.11" length="69.99" width="3.50" customShape="1" shape="383.27,143.43 383.05,143.88 380.82,148.89 379.40,152.62 378.40,155.96 377.80,158.89 377.52,161.37 377.49,163.86 377.75,166.34 378.31,168.76 379.18,171.10 380.33,173.31 381.76,175.35 383.44,177.19 385.31,178.84 387.33,180.30 389.49,181.54 391.76,182.57 394.12,183.35 396.57,183.85 399.05,184.01 401.04,183.85 402.98,183.41 404.83,182.66 406.09,181.86 407.16,180.83 407.97,179.57 408.52,178.18 408.86,176.73 409.08,174.74 409.10,174.02"/>
    </edge>
    <edge id="31163" from="24" to="31" priority="3" type="highway.residential" spreadType="center" length="70.00" shape="407.70,184.98 383.70,126.73">
        <lane id="31163_0" index="0" disallow="pedestrian tram rail_urban rail rail_electric rail_fast ship" speed="36.11" length="70.00" width="3.50" customShape="1" shape="407.70,184.98 406.18,185.88 403.95,186.77 401.62,187.30 399.25,187.50 396.35,187.35 393.52,186.81 390.79,185.95 388.19,184.81 385.72,183.41 383.40,181.79 381.24,179.93 379.29,177.84 377.58,175.52 376.20,172.98 375.14,170.31 374.42,167.53 374.04,164.68 374.00,161.82 374.25,158.99 374.87,155.69 375.93,151.96 377.46,147.85 379.87,142.43 380.11,141.93"/>
    </edge>
    <edge id="31200" from="31" to="23" priority="3" type="highway.residential" spreadType="center" length="70.00" shape="384.81,124.44 474.51,98.10">
        <lane id="31200_0" index="0" disallow="pedestrian tram rail_urban rail rail_electric rail_fast ship" speed="36.11" length="70.00" width="3.50" customShape="1" shape="406.47,114.52 418.73,111.69 446.60,104.72 464.71,100.27 474.51,98.10"/>
    </edge>
    <edge id="31201" from="28" to="31" priority="3" type="highway.residential" spreadType="center" length="70.00" shape="475.27,101.51 385.80,127.80">
        <lane id="31201_0" index="0" disallow="pedestrian tram rail_urban rail rail_electric rail_fast ship" speed="36.11" length="70.00" width="3.50" customShape="1" shape="475.27,101.51 465.29,103.73 447.26,108.16 419.48,115.11 407.23,117.94"/>
    </edge>
    <edge id="31203" from="30" to="31" priority="3" type="highway.residential" spreadType="center" length="21.92" shape="325.60,114.20 385.68,124.40">
        <lane id="31203_0" index="0" disallow="pedestrian tram rail_urban rail rail_electric rail_fast ship" speed="36.11" length="21.92" width="3.50" customShape="1" shape="346.51,112.66 353.85,114.73 361.25,116.51 367.82,117.71"/>
    </edge>
    <edge id="31204" from="31" to="30" priority="3" type="highway.residential" spreadType="center" length="22.25" shape="385.09,127.84 325.01,117.65">
        <lane id="31204_0" index="0" disallow="pedestrian tram rail_urban rail rail_electric rail_fast ship" speed="36.11" length="22.25" width="3.50" customShape="1" shape="367.19,121.16 360.55,119.94 353.00,118.12 345.56,116.03"/>
    </edge>
    <edge id="31206" from="25" to="30" priority="3" type="highway.residential" spreadType="center" length="41.61" shape="269.58,89.18 326.06,114.35">
        <lane id="31206_0" index="0" disallow="pedestrian tram rail_urban rail rail_electric rail_fast ship" speed="36.11" length="41.61" width="3.50" customShape="1" shape="269.58,89.18 274.92,91.94 277.57,93.38 281.11,95.26 284.38,96.53 291.04,98.72 298.30,100.71 308.56,103.07"/>
    </edge>
    <edge id="31207" from="30" to="12" priority="3" type="highway.residential" spreadType="center" length="42.49" shape="324.64,117.55 267.97,92.29">
        <lane id="31207_0" index="0" disallow="pedestrian tram rail_urban rail rail_electric rail_fast ship" speed="36.11" length="42.49" width="3.50" customShape="1" shape="307.78,106.48 297.38,104.08 289.98,102.05 283.15,99.81 279.71,98.47 276.02,96.52 273.36,95.07 267.97,92.29"/>
    </edge>

    <junction id="12" type="dead_end" x="267.97" y="92.29" incLanes="31207_0" intLanes="" shape="267.17,93.84 268.78,90.73" rightOfWay="edgePriority"/>
    <junction id="16" type="dead_end" x="223.86" y="158.89" incLanes="31120_0" intLanes="" shape="223.39,160.57 224.33,157.20" rightOfWay="edgePriority"/>
    <junction id="17" type="dead_end" x="279.08" y="243.17" incLanes="31144_0" intLanes="" shape="278.66,244.87 279.49,241.48" rightOfWay="edgePriority"/>
    <junction id="22" type="dead_end" x="409.10" y="174.02" incLanes="31162_0" intLanes="" shape="407.35,173.98 410.85,174.06" rightOfWay="edgePriority"/>
    <junction id="23" type="dead_end" x="474.51" y="98.10" incLanes="31200_0" intLanes="" shape="474.13,96.39 474.89,99.80" rightOfWay="edgePriority"/>
    <junction id="24" type="dead_end" x="407.70" y="184.98" incLanes="" intLanes="" shape="406.81,183.47 408.59,186.48" rightOfWay="edgePriority"/>
    <junction id="25" type="dead_end" x="269.58" y="89.18" incLanes="" intLanes="" shape="268.78,90.73 270.38,87.62" rightOfWay="edgePriority"/>
    <junction id="26" type="dead_end" x="224.79" y="155.51" incLanes="" intLanes="" shape="224.32,157.20 225.25,153.83" rightOfWay="edgePriority"/>
    <junction id="27" type="dead_end" x="273.67" y="238.24" incLanes="" intLanes="" shape="273.25,239.94 274.10,236.55" rightOfWay="edgePriority"/>
    <junction id="28" type="dead_end" x="475.27" y="101.51" incLanes="" intLanes="" shape="474.89,99.80 475.65,103.22" rightOfWay="edgePriority"/>
    <junction id="29" type="priority" x="306.68" y="178.00" incLanes="31147_0 31119_0 31145_0" intLanes=":29_0_0 :29_1_0 :29_2_0 :29_3_0 :29_4_0 :29_5_0" shape="316.91,160.03 310.07,158.53 308.51,163.83 306.42,167.94 303.79,170.86 300.63,172.59 296.95,173.13 292.73,172.49 290.86,179.23 297.29,181.39 302.51,183.98 306.52,187.00 309.32,190.45 310.90,194.33 311.27,198.64 318.26,199.00 318.21,190.67 317.41,184.47 316.38,179.35 315.61,174.27 315.62,168.18">
        <request index="0" response="000000" foes="001000" cont="0"/>
        <request index="1" response="110000" foes="111000" cont="0"/>
        <request index="2" response="100000" foes="100000" cont="0"/>
        <request index="3" response="100011" foes="100011" cont="0"/>
        <request index="4" response="000000" foes="000010" cont="0"/>
        <request index="5" response="000000" foes="001110" cont="0"/>
    </junction>
    <junction id="30" type="priority" x="325.31" y="115.93" incLanes="31204_0 31206_0 31148_0" intLanes=":30_0_0 :30_1_0 :30_2_0 :30_3_0 :30_4_0 :30_5_0" shape="345.09,117.72 346.98,110.98 308.96,101.37 307.39,108.19 312.02,109.73 315.54,111.95 317.93,114.86 319.20,118.45 319.34,122.72 318.36,127.68 325.08,129.64 326.95,124.80 329.40,121.10 332.44,118.55 336.07,117.13 340.28,116.85">
        <request index="0" response="000000" foes="001000" cont="0"/>
        <request index="1" response="000000" foes="111000" cont="0"/>
        <request index="2" response="000000" foes="100000" cont="0"/>
        <request index="3" response="000011" foes="100011" cont="0"/>
        <request index="4" response="000010" foes="000010" cont="0"/>
        <request index="5" response="001110" foes="001110" cont="0"/>
    </junction>
    <junction id="31" type="priority" x="385.34" y="126.11" incLanes="31163_0 31201_0 31203_0" intLanes=":31_0_0 :31_1_0 :31_2_0 :31_3_0 :31_4_0 :31_5_0" shape="378.52,141.18 384.85,144.17 388.33,137.48 391.93,131.83 395.67,127.22 399.53,123.65 403.52,121.13 407.65,119.64 406.07,112.82 398.12,114.78 392.16,116.31 387.17,117.30 382.17,117.65 376.16,117.25 368.14,115.99 366.88,122.88 372.39,124.34 376.48,126.43 379.14,129.16 380.36,132.53 380.16,136.54">
        <request index="0" response="001000" foes="001000" cont="0"/>
        <request index="1" response="111000" foes="111000" cont="0"/>
        <request index="2" response="000000" foes="100000" cont="0"/>
        <request index="3" response="000000" foes="100011" cont="0"/>
        <request index="4" response="000000" foes="000010" cont="0"/>
        <request index="5" response="001100" foes="001110" cont="0"/>
    </junction>

    <connection from="31119" to="31148" fromLane="0" toLane="0" contPos="-4.00" shape="292.26,174.17 294.42,174.67 296.63,174.93 298.85,174.91 299.95,174.77 301.04,174.53 302.10,174.19 303.11,173.75 304.08,173.20 304.99,172.57 305.84,171.84 306.62,171.05 307.33,170.20 308.56,168.34 309.56,166.36 310.37,164.29 311.31,161.09 311.78,158.90" via=":29_2_0" dir="r" state="m"/>
    <connection from="31119" to="31144" fromLane="0" toLane="0" contPos="-4.00" shape="292.26,174.17 296.89,175.63 300.28,176.98 303.56,178.57 306.67,180.47 308.62,181.93 310.42,183.56 312.05,185.36 313.46,187.34 314.63,189.47 315.52,191.74 316.12,194.09 316.44,196.50 316.51,198.91" via=":29_3_0" dir="l" state="m"/>
    <connection from="31145" to="31120" fromLane="0" toLane="0" contPos="-4.00" shape="313.01,198.87 312.95,196.76 312.66,194.71 312.13,192.71 311.36,190.81 310.34,189.01 309.11,187.34 307.68,185.81 306.09,184.42 304.37,183.16 301.58,181.49 298.62,180.08 295.55,178.87 291.33,177.54" via=":29_4_0" dir="r" state="M"/>
    <connection from="31145" to="31148" fromLane="0" toLane="0" contPos="-4.00" shape="313.01,198.87 312.93,193.58 312.44,187.27 311.15,174.68 310.91,169.41 311.01,165.20 311.43,161.00 311.78,158.90" via=":29_5_0" dir="s" state="M"/>
    <connection from="31147" to="31144" fromLane="0" toLane="0" contPos="-4.00" shape="315.21,159.58 314.89,161.54 314.48,165.59 314.39,169.64 314.63,174.76 315.93,187.23 316.43,193.57 316.51,198.91" via=":29_0_0" dir="s" state="M"/>
    <connection from="31147" to="31120" fromLane="0" toLane="0" contPos="-4.00" shape="315.21,159.58 314.67,162.08 313.58,165.75 312.61,168.18 311.39,170.53 309.90,172.72 308.99,173.78 308.01,174.75 306.94,175.63 305.78,176.41 304.55,177.08 303.25,177.61 301.92,178.02 300.57,178.29 299.17,178.45 296.51,178.46 293.88,178.13 291.33,177.54" via=":29_1_0" dir="l" state="m"/>
    <connection from="31148" to="31207" fromLane="0" toLane="0" contPos="-4.00" shape="320.04,128.18 320.87,124.73 321.20,122.46 321.30,120.19 321.12,117.93 320.92,116.89 320.64,115.84 320.26,114.83 319.80,113.87 319.25,112.97 318.61,112.11 317.88,111.32 317.09,110.59 316.25,109.93 314.33,108.74 312.26,107.81 310.08,107.06 307.78,106.48" via=":30_4_0" dir="r" state="m"/>
    <connection from="31148" to="31203" fromLane="0" toLane="0" contPos="-4.00" shape="320.04,128.18 320.42,126.94 321.75,123.45 322.89,121.15 324.26,118.96 325.90,116.92 327.80,115.12 328.90,114.30 330.04,113.59 331.24,112.97 332.48,112.46 333.79,112.05 336.37,111.57 338.98,111.44 341.56,111.62 344.08,112.05 346.51,112.66" via=":30_5_0" dir="l" state="m"/>
    <connection from="31163" to="31204" fromLane="0" toLane="0" contPos="-4.00" shape="380.11,141.93 381.04,139.78 381.79,137.56 382.29,135.27 382.42,134.10 382.45,132.93 382.36,131.76 382.15,130.61 381.79,129.49 381.30,128.43 380.68,127.44 379.94,126.53 379.10,125.71 378.18,124.99 377.20,124.34 375.11,123.28 372.92,122.46 370.66,121.83 367.19,121.16" via=":31_0_0" dir="r" state="m"/>
    <connection from="31163" to="31200" fromLane="0" toLane="0" contPos="-4.00" shape="380.11,141.93 382.64,136.92 385.47,132.07 387.99,128.35 390.78,124.83 393.07,122.36 395.56,120.10 398.26,118.08 401.18,116.40 403.23,115.50 405.36,114.80 406.47,114.52" via=":31_1_0" dir="l" state="m"/>
    <connection from="31201" to="31162" fromLane="0" toLane="0" contPos="-4.00" shape="407.23,117.94 406.28,118.17 404.38,118.80 402.58,119.61 399.97,121.15 397.54,122.99 395.29,125.08 393.20,127.36 390.64,130.66 388.30,134.14 385.65,138.71 383.27,143.43" via=":31_2_0" dir="r" state="M"/>
    <connection from="31201" to="31204" fromLane="0" toLane="0" contPos="-4.00" shape="407.23,117.94 398.88,119.62 391.54,120.77 385.21,121.46 378.85,121.81 373.54,121.76 369.31,121.44 367.19,121.16" via=":31_3_0" dir="s" state="M"/>
    <connection from="31203" to="31200" fromLane="0" toLane="0" contPos="-4.00" shape="367.75,117.70 369.72,117.96 373.78,118.27 378.89,118.31 385.04,117.97 391.18,117.29 398.33,116.16 406.47,114.52" via=":31_4_0" dir="s" state="M"/>
    <connection from="31203" to="31162" fromLane="0" toLane="0" contPos="-4.00" shape="367.75,117.70 371.72,118.48 374.38,119.22 376.99,120.21 379.49,121.51 380.72,122.33 381.87,123.26 382.93,124.32 383.87,125.50 384.66,126.80 385.29,128.20 385.73,129.66 385.98,131.14 386.08,132.62 386.03,134.09 385.86,135.55 385.25,138.28 384.36,140.91 383.27,143.43" via=":31_5_0" dir="l" state="m"/>
    <connection from="31204" to="31147" fromLane="0" toLane="0" contPos="-4.00" shape="345.56,116.03 343.43,115.49 341.27,115.13 339.09,114.98 336.91,115.09 334.77,115.50 333.72,115.84 332.72,116.26 331.74,116.76 330.82,117.34 329.95,118.00 328.37,119.51 327.01,121.22 325.86,123.08 324.89,125.04 323.72,128.10 323.40,129.15" via=":30_0_0" dir="r" state="M"/>
    <connection from="31204" to="31207" fromLane="0" toLane="0" contPos="-4.00" shape="345.56,116.03 335.69,113.26 321.79,109.70 307.78,106.48" via=":30_1_0" dir="s" state="M"/>
    <connection from="31206" to="31203" fromLane="0" toLane="0" contPos="-4.00" shape="308.55,103.07 322.62,106.30 336.60,109.88 346.51,112.66" via=":30_2_0" dir="s" state="M"/>
    <connection from="31206" to="31147" fromLane="0" toLane="0" contPos="-4.00" shape="308.55,103.07 311.17,103.73 313.72,104.60 316.17,105.71 318.47,107.12 319.53,107.95 320.53,108.86 321.44,109.85 322.25,110.93 322.95,112.08 323.54,113.29 324.02,114.55 324.38,115.85 324.63,117.17 324.85,119.86 324.73,122.55 324.35,125.22 323.40,129.15" via=":30_3_0" dir="l" state="m"/>

    <connection from=":29_0" to="31144" fromLane="0" toLane="0" dir="s" state="M"/>
    <connection from=":29_1" to="31120" fromLane="0" toLane="0" dir="l" state="M"/>
    <connection from=":29_2" to="31148" fromLane="0" toLane="0" dir="r" state="M"/>
    <connection from=":29_3" to="31144" fromLane="0" toLane="0" dir="l" state="M"/>
    <connection from=":29_4" to="31120" fromLane="0" toLane="0" dir="r" state="M"/>