<!-- generated on Tue Feb  9 22:18:29 2021 by Eclipse SUMO netconvert Version 1.8.0
<configuration xmlns:xsi="http://www.w3.org/2001/XMLSchema-instance" xsi:noNamespaceSchemaLocation="http://sumo.dlr.de/xsd/netconvertConfiguration.xsd">

    <input>
        <node-files value="./converted_scenarios/scenario-factory/ESP_SantBoideLlobregat-14_4_I-1-1/ESP_SantBoideLlobregat-14_4_I-1-1.nod.xml"/>
        <edge-files value="./converted_scenarios/scenario-factory/ESP_SantBoideLlobregat-14_4_I-1-1/ESP_SantBoideLlobregat-14_4_I-1-1.edg.xml"/>
        <connection-files value="./converted_scenarios/scenario-factory/ESP_SantBoideLlobregat-14_4_I-1-1/ESP_SantBoideLlobregat-14_4_I-1-1.con.xml"/>
        <tllogic-files value="./converted_scenarios/scenario-factory/ESP_SantBoideLlobregat-14_4_I-1-1/ESP_SantBoideLlobregat-14_4_I-1-1.tll.xml"/>
        <type-files value="/home/zen/commonroad-interactive-benchmarks/install/commonroad-map-tool/crmapconverter/sumo_map/templates/DEU.typ.xml"/>
    </input>

    <output>
        <output-file value="./converted_scenarios/scenario-factory/ESP_SantBoideLlobregat-14_4_I-1-1/ESP_SantBoideLlobregat-14_4_I-1-1.net.xml"/>
    </output>

    <processing>
        <geometry.remove.keep-edges.explicit value="true"/>
        <geometry.avoid-overlap value="true"/>
        <offset.disable-normalization value="true"/>
    </processing>

    <junctions>
        <no-turnarounds value="true"/>
        <junctions.internal-link-detail value="20"/>
    </junctions>

    <report>
        <aggregate-warnings value="5"/>
    </report>

    <random_number>
        <seed value="1234"/>
    </random_number>

</configuration>
--><net xmlns:xsi="http://www.w3.org/2001/XMLSchema-instance" version="1.6" junctionCornerDetail="5" junctionLinkDetail="20" limitTurnSpeed="5.50" xsi:noNamespaceSchemaLocation="http://sumo.dlr.de/xsd/net_file.xsd">

    <location netOffset="0.00,0.00" convBoundary="45.86,-59.65,208.79,176.28" origBoundary="45.86,-59.65,208.79,176.28" projParameter="!"/>

    <type id="highway.bridleway" priority="1" speed="2.78" allow="pedestrian" oneway="1" width="2.00"/>
    <type id="highway.bus_guideway" priority="1" speed="27.78" allow="bus" oneway="1"/>
    <type id="highway.cycleway" priority="1" speed="8.33" allow="bicycle" oneway="0" width="1.00"/>
    <type id="highway.footway" priority="1" speed="2.78" allow="pedestrian" oneway="1" width="2.00"/>
    <type id="highway.ford" priority="1" speed="2.78" allow="army" oneway="0"/>
    <type id="highway.living_street" priority="2" speed="2.78" disallow="tram rail_urban rail rail_electric rail_fast ship" oneway="0"/>
    <type id="highway.motorway" priority="14" speed="39.44" allow="private emergency authority army vip passenger hov taxi bus coach delivery truck trailer motorcycle evehicle custom1 custom2" oneway="1"/>
    <type id="highway.motorway_link" priority="9" speed="22.22" allow="private emergency authority army vip passenger hov taxi bus coach delivery truck trailer motorcycle evehicle custom1 custom2" oneway="1"/>
    <type id="highway.path" priority="1" speed="2.78" allow="pedestrian bicycle" oneway="0" width="2.00"/>
    <type id="highway.pedestrian" priority="1" speed="2.78" allow="pedestrian" oneway="1" width="2.00"/>
    <type id="highway.primary" priority="12" speed="27.78" disallow="pedestrian tram rail_urban rail rail_electric rail_fast ship" oneway="0"/>
    <type id="highway.primary_link" priority="7" speed="22.22" disallow="pedestrian tram rail_urban rail rail_electric rail_fast ship" oneway="0"/>
    <type id="highway.raceway" priority="15" speed="83.33" allow="vip" oneway="0"/>
    <type id="highway.residential" priority="3" speed="13.89" disallow="pedestrian tram rail_urban rail rail_electric rail_fast ship" oneway="0"/>
    <type id="highway.secondary" priority="11" speed="27.78" disallow="pedestrian tram rail_urban rail rail_electric rail_fast ship" oneway="0"/>
    <type id="highway.secondary_link" priority="6" speed="22.22" disallow="pedestrian tram rail_urban rail rail_electric rail_fast ship" oneway="0"/>
    <type id="highway.service" priority="1" speed="5.56" allow="pedestrian delivery bicycle" oneway="0"/>
    <type id="highway.stairs" priority="1" speed="1.39" allow="pedestrian" oneway="1" width="2.00"/>
    <type id="highway.step" priority="1" speed="1.39" allow="pedestrian" oneway="1" width="2.00"/>
    <type id="highway.steps" priority="1" speed="1.39" allow="pedestrian" oneway="1" width="2.00"/>
    <type id="highway.tertiary" priority="10" speed="22.22" disallow="pedestrian tram rail_urban rail rail_electric rail_fast ship" oneway="0"/>
    <type id="highway.tertiary_link" priority="5" speed="22.22" disallow="pedestrian tram rail_urban rail rail_electric rail_fast ship" oneway="0"/>
    <type id="highway.track" priority="1" speed="5.56" allow="pedestrian motorcycle moped bicycle" oneway="0"/>
    <type id="highway.trunk" priority="13" speed="27.78" disallow="pedestrian bicycle tram rail_urban rail rail_electric rail_fast ship" oneway="0"/>
    <type id="highway.trunk_link" priority="8" speed="22.22" disallow="pedestrian bicycle tram rail_urban rail rail_electric rail_fast ship" oneway="0"/>
    <type id="highway.unclassified" priority="4" speed="13.89" disallow="pedestrian tram rail_urban rail rail_electric rail_fast ship" oneway="0"/>
    <type id="highway.unsurfaced" priority="1" speed="8.33" disallow="tram rail_urban rail rail_electric rail_fast ship" oneway="0"/>
    <type id="railway.highspeed" priority="21" speed="69.44" allow="rail_fast" oneway="1"/>
    <type id="railway.light_rail" priority="19" speed="27.78" allow="rail_urban" oneway="1"/>
    <type id="railway.preserved" priority="16" speed="27.78" allow="rail" oneway="1"/>
    <type id="railway.rail" priority="20" speed="44.44" allow="rail" oneway="1"/>
    <type id="railway.subway" priority="18" speed="27.78" allow="rail_urban" oneway="1"/>
    <type id="railway.tram" priority="17" speed="13.89" allow="tram" oneway="1"/>

    <edge id=":37_0" function="internal">
        <lane id=":37_0_0" index="0" disallow="pedestrian tram rail_urban rail rail_electric rail_fast ship" speed="11.63" length="27.92" width="3.50" shape="83.69,90.18 80.96,88.36 78.16,86.78 76.21,85.88 74.20,85.14 72.12,84.60 70.00,84.31 67.86,84.32 66.79,84.45 65.74,84.66 64.71,84.97 62.75,85.83 60.95,86.99 59.33,88.39 58.59,89.15"/>
    </edge>
    <edge id=":37_1" function="internal">
        <lane id=":37_1_0" index="0" disallow="pedestrian tram rail_urban rail rail_electric rail_fast ship" speed="12.48" length="37.48" width="3.50" shape="83.68,90.18 80.61,87.73 78.77,85.92 77.13,83.93 75.74,81.76 74.68,79.41 74.29,78.17 74.00,76.92 73.83,75.64 73.75,74.35 73.92,71.77 74.45,69.25 75.28,66.80 76.35,64.46 78.31,61.12 80.58,57.98"/>
    </edge>
    <edge id=":37_2" function="internal">
        <lane id=":37_2_0" index="0" disallow="pedestrian tram rail_urban rail rail_electric rail_fast ship" speed="11.51" length="31.70" width="3.50" shape="83.34,60.13 81.33,62.91 79.60,65.84 78.68,67.84 77.96,69.91 77.51,72.01 77.36,74.15 77.42,75.17 77.55,76.20 77.77,77.22 78.07,78.19 78.94,80.15 80.08,81.96 81.47,83.64 83.03,85.19 85.69,87.31"/>
    </edge>
    <edge id=":37_3" function="internal">
        <lane id=":37_3_0" index="0" disallow="pedestrian tram rail_urban rail rail_electric rail_fast ship" speed="36.11" length="38.15" width="3.50" shape="83.34,60.13 76.86,68.18 68.19,78.40 58.59,89.15"/>
    </edge>
    <edge id=":37_4" function="internal">
        <lane id=":37_4_0" index="0" disallow="pedestrian tram rail_urban rail rail_electric rail_fast ship" speed="36.11" length="37.88" width="3.50" shape="56.00,86.79 65.55,76.11 74.16,65.96 80.58,57.98"/>
    </edge>
    <edge id=":37_5" function="internal">
        <lane id=":37_5_0" index="0" disallow="pedestrian tram rail_urban rail rail_electric rail_fast ship" speed="12.61" length="33.01" width="3.50" shape="56.00,86.79 56.90,85.87 58.81,84.21 60.98,82.78 63.32,81.70 64.61,81.29 65.89,80.99 67.23,80.80 69.80,80.74 72.35,81.04 74.82,81.64 77.18,82.48 79.45,83.50 82.65,85.28 85.69,87.31"/>
    </edge>
    <edge id=":38_0" function="internal">
        <lane id=":38_0_0" index="0" disallow="pedestrian tram rail_urban rail rail_electric rail_fast ship" speed="36.11" length="34.95" width="3.50" shape="128.45,3.39 121.15,13.35 111.86,25.66 107.33,31.23"/>
    </edge>
    <edge id=":38_1" function="internal">
        <lane id=":38_1_0" index="0" disallow="pedestrian tram rail_urban rail rail_electric rail_fast ship" speed="11.42" length="41.95" width="3.50" shape="128.45,3.39 125.43,7.20 123.22,9.55 120.79,11.67 119.48,12.61 118.09,13.43 116.62,14.09 115.08,14.56 113.48,14.78 111.87,14.71 110.30,14.35 108.81,13.73 107.43,12.89 106.17,11.90 105.01,10.77 103.94,9.56 102.04,6.95 100.40,4.18 98.27,-0.17"/>
    </edge>
    <edge id=":38_2" function="internal">
        <lane id=":38_2_0" index="0" disallow="pedestrian tram rail_urban rail rail_electric rail_fast ship" speed="10.34" length="34.13" width="3.50" shape="101.47,-1.60 103.32,2.21 104.73,4.58 106.34,6.80 107.20,7.77 108.13,8.67 109.11,9.45 110.15,10.09 111.23,10.55 112.34,10.81 113.47,10.85 114.62,10.70 115.77,10.35 116.90,9.84 118.01,9.19 119.06,8.44 121.12,6.65 123.00,4.65 125.62,1.33"/>
    </edge>
    <edge id=":38_3" function="internal">
        <lane id=":38_3_0" index="0" disallow="pedestrian tram rail_urban rail rail_electric rail_fast ship" speed="15.11" length="34.54" width="3.50" shape="101.47,-1.60 103.21,2.47 105.61,8.62 107.36,13.88 108.48,18.22 109.07,21.58 109.26,23.92 109.19,26.30 109.00,27.57 108.65,28.83 108.10,30.08 107.33,31.23"/>
    </edge>
    <edge id=":38_4" function="internal">
        <lane id=":38_4_0" index="0" disallow="pedestrian tram rail_urban rail rail_electric rail_fast ship" speed="14.12" length="30.71" width="3.50" shape="104.65,28.99 105.21,28.15 105.57,27.19 105.78,26.19 105.87,25.17 105.83,23.12 105.57,21.09 104.95,18.09 103.83,14.14 102.16,9.30 99.89,3.59 98.27,-0.17"/>
    </edge>
    <edge id=":38_5" function="internal">
        <lane id=":38_5_0" index="0" disallow="pedestrian tram rail_urban rail rail_electric rail_fast ship" speed="36.11" length="34.72" width="3.50" shape="104.65,28.99 109.14,23.45 118.36,11.23 125.62,1.33"/>
    </edge>
    <edge id=":39_0" function="internal">
        <lane id=":39_0_0" index="0" disallow="pedestrian tram rail_urban rail rail_electric rail_fast ship" speed="13.14" length="29.79" width="3.50" shape="139.18,112.91 137.08,112.71 134.95,112.68 132.82,112.87 130.74,113.28 128.70,113.92 126.76,114.78 124.92,115.85 123.21,117.12 121.62,118.54 120.17,120.10 118.22,122.63 116.51,125.33 115.50,127.20"/>
    </edge>
    <edge id=":39_1" function="internal">
        <lane id=":39_1_0" index="0" disallow="pedestrian tram rail_urban rail rail_electric rail_fast ship" speed="36.11" length="36.28" width="3.50" shape="139.18,112.91 136.00,112.40 130.76,111.30 124.58,109.62 118.51,107.59 111.57,104.88 104.77,101.84"/>
    </edge>
    <edge id=":39_2" function="internal">
        <lane id=":39_2_0" index="0" disallow="pedestrian tram rail_urban rail rail_electric rail_fast ship" speed="36.11" length="35.20" width="3.50" shape="106.27,98.68 112.90,101.64 119.65,104.28 125.54,106.25 131.54,107.89 136.61,108.96 139.65,109.44"/>
    </edge>
    <edge id=":39_3" function="internal">
        <lane id=":39_3_0" index="0" disallow="pedestrian tram rail_urban rail rail_electric rail_fast ship" speed="12.19" length="34.64" width="3.50" shape="106.27,98.68 108.64,99.90 110.91,101.31 113.02,102.93 114.92,104.79 115.77,105.82 116.54,106.91 117.20,108.06 117.77,109.27 118.22,110.52 118.55,111.81 118.77,113.13 118.87,114.46 118.77,117.12 118.32,119.74 117.59,122.30 116.63,124.79 115.50,127.20"/>
    </edge>
    <edge id=":39_4" function="internal">
        <lane id=":39_4_0" index="0" disallow="pedestrian tram rail_urban rail rail_electric rail_fast ship" speed="11.18" length="28.95" width="3.50" shape="112.38,125.62 113.37,123.51 114.20,121.37 114.83,119.18 115.21,116.99 115.29,114.76 115.21,113.72 115.04,112.67 114.78,111.64 114.42,110.64 113.98,109.67 113.44,108.75 112.83,107.86 112.16,107.05 110.56,105.48 108.78,104.11 106.84,102.90 104.77,101.84"/>
    </edge>
    <edge id=":39_5" function="internal">
        <lane id=":39_5_0" index="0" disallow="pedestrian tram rail_urban rail rail_electric rail_fast ship" speed="14.04" length="34.14" width="3.50" shape="112.38,125.62 113.52,123.52 115.43,120.50 117.64,117.65 119.32,115.87 121.15,114.25 123.14,112.80 125.29,111.57 127.56,110.58 129.93,109.85 132.36,109.39 134.81,109.18 137.25,109.21 139.65,109.44"/>
    </edge>
    <edge id=":40_0" function="internal">
        <lane id=":40_0_0" index="0" disallow="pedestrian tram rail_urban rail rail_electric rail_fast ship" speed="36.11" length="33.22" width="3.50" shape="107.11,31.50 96.29,44.10 87.74,54.55 85.81,56.99"/>
    </edge>
    <edge id=":40_1" function="internal">
        <lane id=":40_1_0" index="0" disallow="pedestrian tram rail_urban rail rail_electric rail_fast ship" speed="16.52" length="42.42" width="3.50" shape="91.52,17.30 92.88,20.62 93.90,23.89 94.62,27.24 95.01,30.65 95.06,34.07 94.75,37.48 94.09,40.84 93.10,44.12 91.81,47.30 90.26,50.35 88.48,53.28 85.81,56.99"/>
    </edge>
    <edge id=":40_2" function="internal">
        <lane id=":40_2_0" index="0" disallow="pedestrian tram rail_urban rail rail_electric rail_fast ship" speed="15.72" length="38.46" width="3.50" shape="83.04,54.85 85.52,51.40 87.15,48.72 88.57,45.93 89.75,43.05 90.65,40.08 91.25,37.04 91.54,33.97 91.50,30.88 91.15,27.80 90.50,24.76 89.57,21.78 88.40,18.88"/>
    </edge>
    <edge id=":40_3" function="internal">
        <lane id=":40_3_0" index="0" disallow="pedestrian tram rail_urban rail rail_electric rail_fast ship" speed="36.11" length="33.43" width="3.49" shape="83.04,54.85 85.00,52.36 93.60,41.86 104.47,29.20"/>
    </edge>

    <edge id="141382" from="37" to="40" priority="3" type="highway.residential" spreadType="center" length="4.00" shape="73.03,77.89 91.82,34.06">
        <lane id="141382_0" index="0" disallow="pedestrian tram rail_urban rail rail_electric rail_fast ship" speed="36.11" length="4.00" width="3.50" customShape="1" shape="80.58,57.98 81.82,56.40 83.05,54.83"/>
    </edge>
    <edge id="141383" from="40" to="37" priority="3" type="highway.residential" spreadType="center" length="4.00" shape="95.04,35.44 76.25,79.27">
        <lane id="141383_0" index="0" disallow="pedestrian tram rail_urban rail rail_electric rail_fast ship" speed="36.11" length="4.00" width="3.50" customShape="1" shape="85.81,56.99 84.57,58.56 83.34,60.14"/>
    </edge>
    <edge id="141397" from="38" to="29" priority="3" type="highway.residential" spreadType="center" length="70.00" shape="109.21,10.53 111.09,-59.65">
        <lane id="141397_0" index="0" disallow="pedestrian tram rail_urban rail rail_electric rail_fast ship" speed="36.11" length="70.00" width="3.50" customShape="1" shape="98.27,-0.17 97.64,-1.62 94.86,-8.45 92.98,-13.93 91.59,-19.01 90.56,-24.17 89.97,-28.88 89.86,-32.04 90.10,-35.19 90.70,-38.29 91.65,-41.30 92.93,-44.19 94.30,-46.43 95.93,-48.50 98.14,-50.76 101.35,-53.49 104.77,-55.96 108.80,-58.44 111.09,-59.65"/>
    </edge>
    <edge id="141398" from="35" to="38" priority="3" type="highway.residential" spreadType="center" length="68.44" shape="115.97,-58.28 112.71,10.66">
        <lane id="141398_0" index="0" disallow="pedestrian tram rail_urban rail rail_electric rail_fast ship" speed="36.11" length="68.44" width="3.50" customShape="1" shape="115.97,-58.28 110.65,-55.47 106.85,-53.14 103.66,-50.86 100.67,-48.34 98.65,-46.30 97.20,-44.47 96.00,-42.50 94.87,-39.91 94.03,-37.19 93.53,-34.40 93.36,-31.56 93.50,-28.67 94.09,-24.28 95.09,-19.43 96.42,-14.65 98.22,-9.47 100.87,-2.95 101.48,-1.57"/>
    </edge>
    <edge id="141400" from="39" to="21" priority="3" type="highway.residential" spreadType="center" length="51.97" shape="121.30,113.14 99.70,176.28">
        <lane id="141400_0" index="0" disallow="pedestrian tram rail_urban rail rail_electric rail_fast ship" speed="36.11" length="51.97" width="3.50" customShape="1" shape="115.50,127.20 114.37,129.43 109.78,138.87 106.79,145.74 104.33,152.29 102.70,157.54 101.74,161.93 100.81,168.36 99.70,176.28"/>
    </edge>
    <edge id="141401" from="34" to="39" priority="3" type="highway.residential" spreadType="center" length="53.07" shape="96.24,175.74 117.98,112.01">
        <lane id="141401_0" index="0" disallow="pedestrian tram rail_urban rail rail_electric rail_fast ship" speed="36.11" length="53.07" width="3.50" customShape="1" shape="96.24,175.74 97.36,167.74 98.33,161.18 99.33,156.61 101.01,151.19 103.52,144.48 106.57,137.46 111.23,127.88 112.38,125.62"/>
    </edge>
    <edge id="141403" from="31" to="37" priority="3" type="highway.residential" spreadType="center" length="15.03" shape="45.86,97.87 73.67,77.13">
        <lane id="141403_0" index="0" disallow="pedestrian tram rail_urban rail rail_electric rail_fast ship" speed="36.11" length="15.03" width="3.50" customShape="1" shape="45.86,97.87 50.93,92.34 56.01,86.79"/>
    </edge>
    <edge id="141404" from="37" to="12" priority="3" type="highway.residential" spreadType="center" length="15.03" shape="75.76,79.93 48.44,100.24">
        <lane id="141404_0" index="0" disallow="pedestrian tram rail_urban rail rail_electric rail_fast ship" speed="36.11" length="15.03" width="3.50" customShape="1" shape="58.59,89.15 53.51,94.70 48.44,100.24"/>
    </edge>
    <edge id="141412" from="39" to="20" priority="3" type="highway.residential" spreadType="center" length="69.80" shape="119.75,110.87 208.79,119.00">
        <lane id="141412_0" index="0" disallow="pedestrian tram rail_urban rail rail_electric rail_fast ship" speed="36.11" length="69.80" width="3.50" customShape="1" shape="139.65,109.44 174.23,114.22 208.79,119.00"/>
    </edge>
    <edge id="141413" from="33" to="39" priority="3" type="highway.residential" spreadType="center" length="69.80" shape="208.31,122.47 119.43,114.35">
        <lane id="141413_0" index="0" disallow="pedestrian tram rail_urban rail rail_electric rail_fast ship" speed="36.11" length="69.80" width="3.50" customShape="1" shape="208.31,122.47 173.75,117.69 139.17,112.91"/>
    </edge>
    <edge id="141415" from="32" to="40" priority="3" type="highway.residential" spreadType="center" length="69.84" shape="51.49,-39.37 94.93,33.95">
        <lane id="141415_0" index="0" disallow="pedestrian tram rail_urban rail rail_electric rail_fast ship" speed="36.11" length="69.84" width="3.50" customShape="1" shape="51.49,-39.37 52.37,-37.13 54.55,-32.62 57.25,-27.82 61.02,-21.91 69.81,-9.11 72.27,-5.96 75.35,-2.66 82.83,4.72 85.82,8.10 87.91,10.91 90.02,14.32 91.52,17.30"/>
    </edge>
    <edge id="141416" from="40" to="9" priority="3" type="highway.residential" spreadType="center" length="70.00" shape="91.92,35.73 48.30,-37.94">
        <lane id="141416_0" index="0" disallow="pedestrian tram rail_urban rail rail_electric rail_fast ship" speed="36.11" length="70.00" width="3.50" customShape="1" shape="88.40,18.88 86.88,15.86 84.80,12.57 82.74,9.87 79.75,6.57 72.17,-0.90 69.04,-4.38 66.54,-7.69 57.60,-20.73 53.79,-26.81 51.05,-31.78 48.85,-36.48 48.30,-37.94"/>
    </edge>
    <edge id="141418" from="37" to="39" priority="3" type="highway.residential" spreadType="center" length="23.58" shape="75.70,77.19 120.72,111.25">
        <lane id="141418_0" index="0" disallow="pedestrian tram rail_urban rail rail_electric rail_fast ship" speed="36.11" length="23.58" width="3.50" customShape="1" shape="85.69,87.31 87.32,88.45 91.99,91.39 97.71,94.51 106.30,98.69"/>
    </edge>
    <edge id="141419" from="39" to="37" priority="3" type="highway.residential" spreadType="center" length="24.18" shape="118.61,114.04 73.59,79.98">
        <lane id="141419_0" index="0" disallow="pedestrian tram rail_urban rail rail_electric rail_fast ship" speed="36.11" length="24.18" width="3.50" customShape="1" shape="104.77,101.84 96.04,97.59 90.17,94.37 85.36,91.35 83.64,90.15"/>
    </edge>
    <edge id="141421" from="38" to="30" priority="3" type="highway.residential" spreadType="center" length="13.03" shape="109.80,9.22 133.29,-9.20">
        <lane id="141421_0" index="0" disallow="pedestrian tram rail_urban rail rail_electric rail_fast ship" speed="36.11" length="13.03" width="3.50" customShape="1" shape="125.62,1.33 129.45,-3.93 133.29,-9.20"/>
    </edge>
    <edge id="141422" from="36" to="38" priority="3" type="highway.residential" spreadType="center" length="13.05" shape="136.12,-7.14 111.97,11.96">
        <lane id="141422_0" index="0" disallow="pedestrian tram rail_urban rail rail_electric rail_fast ship" speed="36.11" length="13.05" width="3.50" customShape="1" shape="136.12,-7.14 132.28,-1.87 128.44,3.41"/>
    </edge>
    <edge id="141424" from="40" to="38" priority="3" type="highway.residential" spreadType="center" length="0.29" shape="91.93,33.87 109.55,9.51">
        <lane id="141424_0" index="0" disallow="pedestrian tram rail_urban rail rail_electric rail_fast ship" speed="36.11" length="0.29" width="3.49" customShape="1" shape="104.47,29.20 104.56,29.09 104.66,28.98"/>
    </edge>
    <edge id="141425" from="38" to="40" priority="3" type="highway.residential" spreadType="center" length="0.35" shape="112.38,11.56 94.76,35.91">
        <lane id="141425_0" index="0" disallow="pedestrian tram rail_urban rail rail_electric rail_fast ship" speed="36.11" length="0.35" width="3.50" customShape="1" shape="107.33,31.23 107.19,31.40 107.10,31.50"/>
    </edge>

    <junction id="12" type="dead_end" x="48.44" y="100.24" incLanes="141404_0" intLanes="" shape="49.73,101.42 47.15,99.06" rightOfWay="edgePriority"/>
    <junction id="20" type="dead_end" x="208.79" y="119.00" incLanes="141412_0" intLanes="" shape="209.03,117.27 208.55,120.73" rightOfWay="edgePriority"/>
    <junction id="21" type="dead_end" x="99.70" y="176.28" incLanes="141400_0" intLanes="" shape="101.43,176.52 97.97,176.04" rightOfWay="edgePriority"/>
    <junction id="29" type="dead_end" x="111.09" y="-59.65" incLanes="141397_0" intLanes="" shape="110.27,-61.20 111.91,-58.11" rightOfWay="edgePriority"/>
    <junction id="30" type="dead_end" x="133.29" y="-9.20" incLanes="141421_0" intLanes="" shape="131.88,-10.23 134.71,-8.17" rightOfWay="edgePriority"/>
    <junction id="31" type="dead_end" x="45.86" y="97.87" incLanes="" intLanes="" shape="47.15,99.06 44.57,96.69" rightOfWay="edgePriority"/>
    <junction id="32" type="dead_end" x="51.49" y="-39.37" incLanes="" intLanes="" shape="49.86,-38.73 53.11,-40.02" rightOfWay="edgePriority"/>
    <junction id="33" type="dead_end" x="208.31" y="122.47" incLanes="" intLanes="" shape="208.55,120.73 208.07,124.20" rightOfWay="edgePriority"/>
    <junction id="34" type="dead_end" x="96.24" y="175.74" incLanes="" intLanes="" shape="97.98,175.99 94.51,175.50" rightOfWay="edgePriority"/>
    <junction id="35" type="dead_end" x="115.97" y="-58.28" incLanes="" intLanes="" shape="115.15,-59.82 116.79,-56.73" rightOfWay="edgePriority"/>
    <junction id="36" type="dead_end" x="136.12" y="-7.14" incLanes="" intLanes="" shape="134.71,-8.17 137.54,-6.11" rightOfWay="edgePriority"/>
    <junction id="37" type="priority" x="74.64" y="78.58" incLanes="141419_0 141383_0 141403_0" intLanes=":37_0_0 :37_1_0 :37_2_0 :37_3_0 :37_4_0 :37_5_0" shape="82.68,91.61 86.69,85.87 82.80,82.52 80.34,78.86 79.30,74.90 79.68,70.64 81.49,66.08 84.71,61.22 79.21,56.90 54.71,85.61 59.88,90.34 62.78,87.89 66.05,86.51 69.67,86.19 73.65,86.93 77.99,88.74">
        <request index="0" response="001000" foes="001000" cont="0"/>
        <request index="1" response="111000" foes="111000" cont="0"/>
        <request index="2" response="000000" foes="100000" cont="0"/>
        <request index="3" response="000000" foes="100011" cont="0"/>
        <request index="4" response="000000" foes="000010" cont="0"/>
        <request index="5" response="001100" foes="001110" cont="0"/>
    </junction>
    <junction id="38" type="priority" x="110.96" y="10.53" incLanes="141422_0 141398_0 141424_0" intLanes=":38_0_0 :38_1_0 :38_2_0 :38_3_0 :38_4_0 :38_5_0" shape="129.87,4.42 124.21,0.30 120.56,4.18 116.69,6.29 112.81,6.66 109.12,5.33 105.81,2.34 103.08,-2.28 96.67,0.53 99.68,7.75 101.94,13.91 103.43,19.00 104.15,23.02 104.12,25.97 103.32,27.86 108.67,32.36">
        <request index="0" response="000000" foes="001000" cont="0"/>
        <request index="1" response="110000" foes="111000" cont="0"/>
        <request index="2" response="100000" foes="100000" cont="0"/>
        <request index="3" response="100011" foes="100011" cont="0"/>
        <request index="4" response="000000" foes="000010" cont="0"/>
        <request index="5" response="000000" foes="001110" cont="0"/>
    </junction>
    <junction id="39" type="priority" x="119.63" y="112.62" incLanes="141413_0 141418_0 141401_0" intLanes=":39_0_0 :39_1_0 :39_2_0 :39_3_0 :39_4_0 :39_5_0" shape="138.93,114.64 139.89,107.71 132.60,106.63 127.23,105.59 122.89,104.36 118.67,102.69 113.69,100.36 107.07,97.12 104.00,103.41 108.13,105.93 111.06,108.86 112.80,112.22 113.34,116.00 112.68,120.20 110.82,124.83 117.06,128.00 119.83,123.37 122.94,119.71 126.41,117.00 130.23,115.26 134.41,114.47">
        <request index="0" response="000000" foes="001000" cont="0"/>
        <request index="1" response="000000" foes="111000" cont="0"/>
        <request index="2" response="000000" foes="100000" cont="0"/>
        <request index="3" response="000011" foes="100011" cont="0"/>
        <request index="4" response="000010" foes="000010" cont="0"/>
        <request index="5" response="001110" foes="001110" cont="0"/>
    </junction>
    <junction id="40" type="priority" x="93.40" y="34.81" incLanes="141425_0 141415_0 141382_0" intLanes=":40_0_0 :40_1_0 :40_2_0 :40_3_0" shape="108.42,32.66 103.16,28.04 100.83,28.14 99.28,26.71 97.47,24.29 95.41,20.89 93.08,16.51 86.84,19.67 89.05,25.26 90.03,30.88 89.78,36.54 88.31,42.24 85.61,47.98 81.68,53.75 87.18,58.07">
        <request index="0" response="0000" foes="0010" cont="0"/>
        <request index="1" response="1001" foes="1001" cont="0"/>
        <request index="2" response="0000" foes="0000" cont="0"/>
        <request index="3" response="0000" foes="0010" cont="0"/>
    </junction>
    <junction id="9" type="dead_end" x="48.30" y="-37.94" incLanes="141416_0" intLanes="" shape="46.66,-37.31 49.93,-38.56" rightOfWay="edgePriority"/>

    <connection from="141382" to="141416" fromLane="0" toLane="0" contPos="-4.00" shape="83.04,54.85 85.52,51.40 87.15,48.72 88.57,45.93 89.75,43.05 90.65,40.08 91.25,37.04 91.54,33.97 91.50,30.88 91.15,27.80 90.50,24.76 89.57,21.78 88.40,18.88" via=":40_2_0" dir="r" state="M"/>
    <connection from="141382" to="141424" fromLane="0" toLane="0" contPos="-4.00" shape="83.04,54.85 85.00,52.36 93.60,41.86 104.47,29.20" via=":40_3_0" dir="s" state="M"/>
    <connection from="141383" to="141418" fromLane="0" toLane="0" contPos="-4.00" shape="83.34,60.13 81.33,62.91 79.60,65.84 78.68,67.84 77.96,69.91 77.51,72.01 77.36,74.15 77.42,75.17 77.55,76.20 77.77,77.22 78.07,78.19 78.94,80.15 80.08,81.96 81.47,83.64 83.03,85.19 85.69,87.31" via=":37_2_0" dir="r" state="M"/>
    <connection from="141383" to="141404" fromLane="0" toLane="0" contPos="-4.00" shape="83.34,60.13 76.86,68.18 68.19,78.40 58.59,89.15" via=":37_3_0" dir="s" state="M"/>
    <connection from="141398" to="141421" fromLane="0" toLane="0" contPos="-4.00" shape="101.47,-1.60 103.32,2.21 104.73,4.58 106.34,6.80 107.20,7.77 108.13,8.67 109.11,9.45 110.15,10.09 111.23,10.55 112.34,10.81 113.47,10.85 114.62,10.70 115.77,10.35 116.90,9.84 118.01,9.19 119.06,8.44 121.12,6.65 123.00,4.65 125.62,1.33" via=":38_2_0" dir="r" state="m"/>
    <connection from="141398" to="141425" fromLane="0" toLane="0" contPos="-4.00" shape="101.47,-1.60 103.21,2.47 105.61,8.62 107.36,13.88 108.48,18.22 109.07,21.58 109.26,23.92 109.19,26.30 109.00,27.57 108.65,28.83 108.10,30.08 107.33,31.23" via=":38_3_0" dir="s" state="m"/>
    <connection from="141401" to="141419" fromLane="0" toLane="0" contPos="-4.00" shape="112.38,125.62 113.37,123.51 114.20,121.37 114.83,119.18 115.21,116.99 115.29,114.76 115.21,113.72 115.04,112.67 114.78,111.64 114.42,110.64 113.98,109.67 113.44,108.75 112.83,107.86 112.16,107.05 110.56,105.48 108.78,104.11 106.84,102.90 104.77,101.84" via=":39_4_0" dir="r" state="m"/>
    <connection from="141401" to="141412" fromLane="0" toLane="0" contPos="-4.00" shape="112.38,125.62 113.52,123.52 115.43,120.50 117.64,117.65 119.32,115.87 121.15,114.25 123.14,112.80 125.29,111.57 127.56,110.58 129.93,109.85 132.36,109.39 134.81,109.18 137.25,109.21 139.65,109.44" via=":39_5_0" dir="l" state="m"/>
    <connection from="141403" to="141382" fromLane="0" toLane="0" contPos="-4.00" shape="56.01,86.79 65.55,76.11 74.16,65.96 80.58,57.98" via=":37_4_0" dir="s" state="M"/>
    <connection from="141403" to="141418" fromLane="0" toLane="0" contPos="-4.00" shape="56.01,86.79 56.90,85.87 58.81,84.21 60.98,82.78 63.32,81.70 64.61,81.29 65.89,80.99 67.23,80.80 69.80,80.74 72.35,81.04 74.82,81.64 77.18,82.48 79.45,83.50 82.65,85.28 85.69,87.31" via=":37_5_0" dir="l" state="m"/>
    <connection from="141413" to="141400" fromLane="0" toLane="0" contPos="-4.00" shape="139.18,112.91 137.08,112.71 134.95,112.68 132.82,112.87 130.74,113.28 128.70,113.92 126.76,114.78 124.92,115.85 123.21,117.12 121.62,118.54 120.17,120.10 118.22,122.63 116.51,125.33 115.50,127.20" via=":39_0_0" dir="r" state="M"/>
    <connection from="141413" to="141419" fromLane="0" toLane="0" contPos="-4.00" shape="139.18,112.91 136.00,112.40 130.76,111.30 124.58,109.62 118.51,107.59 111.57,104.88 104.77,101.84" via=":39_1_0" dir="s" state="M"/>