<routes>
	<vehicle depart="0.1" departLane="0" departPos="21.547282981059602" departSpeed="2.0085787" id="39" type="passenger">
		<route edges=":37_1 141382"/>
	</vehicle>
	<vehicle depart="0.1" departLane="0" departPos="17.595474062338567" departSpeed="0.70496963" id="313" type="passenger">
		<route edges="141419 141404"/>
	</vehicle>
	<vehicle depart="0.1" departLane="0" departPos="2.5" departSpeed="10.348776" id="333" type="passenger">
		<route edges="141418 141400"/>
	</vehicle>
	<vehicle depart="0.1" departLane="0" departPos="8.49692730158391" departSpeed="8.8794554" id="346" type="passenger">
		<route edges=":37_2 141418"/>
	</vehicle>
	<vehicle depart="0.1" departLane="0" departPos="25.866633737284364" departSpeed="8.1688828" id="350" type="passenger">
		<route edges=":38_0 141425 141383"/>
	</vehicle>
	<vehicle depart="0.1" departLane="0" departPos="8.872822440268184" departSpeed="1.1613547" id="321" type="motorcycle">
		<route edges="141403 141382"/>
	</vehicle>
</routes>
