<!-- generated on 2020-12-18 15:57:35.844148 by ipykernel_launcher.py v1_2_0+5214-53edc58fcd
-->
<edges>
	<edge from="1" function="normal" id="3498" length="9.586095898357163" numLanes="1" priority="1" speed="36.11111111111111" spreadType="center" to="2">
		<lane allow="moped bicycle pedestrian custom1 trailer evehicle rail_urban ship private truck vip custom2 authority delivery rail_electric taxi tram army hov coach motorcycle passenger bus rail emergency" index="0" length="9.586095898357163" shape="62.64995,29.961599999999997 53.069199999999995,30.2817" speed="36.11111111111111" width="4.771086938004794"/>
	</edge>
	<edge from="2" function="normal" id="3716" length="18.680147901632264" numLanes="1" priority="1" speed="36.11111111111111" spreadType="center" to="3">
		<lane allow="moped bicycle pedestrian custom1 trailer evehicle rail_urban ship private vip custom2 authority delivery rail_electric taxi tram army hov coach motorcycle passenger rail emergency" index="0" length="18.680147901632264" shape="53.069199999999995,30.2817 49.08535,31.7231 46.22975,34.225750000000005 45.178250000000006,36.615849999999995 44.4756,38.6441 44.6206,41.7891 45.61175,44.344049999999996" speed="36.11111111111111" width="3.353872355949164"/>
	</edge>
	<edge from="4" function="normal" id="3509" length="15.632980848532549" numLanes="3" priority="1" speed="36.11111111111111" spreadType="center" to="5">
		<lane allow="moped bicycle pedestrian custom1 trailer evehicle rail_urban ship private truck vip custom2 authority delivery rail_electric taxi tram army hov coach motorcycle passenger bus rail emergency" index="0" length="15.632980848532549" shape="-48.1431,-35.05775 -43.7469,-37.238600000000005 -34.136449999999996,-42.022149999999996" speed="36.11111111111111" width="3.2317602711216056"/>
		<lane allow="moped bicycle pedestrian custom1 trailer evehicle rail_urban ship private truck vip custom2 authority delivery rail_electric taxi tram army hov coach motorcycle passenger bus rail emergency" index="1" length="15.632980848532549" shape="-46.75355,-32.256699999999995 -42.31615,-34.458 -32.70565,-39.241550000000004" speed="36.11111111111111" width="3.0217924167619463"/>
		<lane allow="moped bicycle pedestrian custom1 trailer evehicle rail_urban ship private truck vip custom2 authority delivery rail_electric taxi tram army hov coach motorcycle passenger bus rail emergency" index="2" length="15.632980848532549" shape="-45.4024,-29.53305 -40.909800000000004,-31.7617 -31.398899999999998,-36.482299999999995" speed="36.11111111111111" width="3.0589561046213087"/>
	</edge>
	<edge from="5" function="normal" id="3672" length="43.42964317851892" numLanes="1" priority="1" speed="36.11111111111111" spreadType="center" to="6">
		<lane allow="moped bicycle pedestrian custom1 trailer evehicle rail_urban ship private vip custom2 authority delivery rail_electric taxi tram army hov coach motorcycle passenger rail emergency" index="0" length="43.42964317851892" shape="-31.398899999999998,-36.482299999999995 -26.2417,-39.02265 -22.658900000000003,-40.507149999999996 -18.81305,-41.8658 -16.03235,-42.8361 -13.5464,-43.33295 -11.31155,-43.54535 -8.97535,-43.42835 -7.33085,-43.29395 -6.2214,-43.0377 -5.28165,-42.4547 -4.3624,-41.1045 -3.2066999999999997,-39.17615000000001 -0.53925,-34.9387 1.0345,-31.88695 2.50625,-28.7748" speed="36.11111111111111" width="2.91718217634758"/>
	</edge>
	<edge from="6" function="normal" id="3456" length="24.710920579823167" numLanes="3" priority="1" speed="36.11111111111111" spreadType="center" to="7">
		<lane allow="moped bicycle pedestrian custom1 trailer evehicle rail_urban ship private truck vip custom2 authority delivery rail_electric taxi tram army hov coach motorcycle passenger bus rail emergency" index="0" length="24.710920579823167" shape="8.0329,-31.5345 11.6287,-24.3409 15.482050000000001,-16.4238 18.844700000000003,-9.3154" speed="36.11111111111111" width="3.047668597469219"/>
		<lane allow="moped bicycle pedestrian custom1 trailer evehicle rail_urban ship private truck vip custom2 authority delivery rail_electric taxi tram army hov coach motorcycle passenger bus rail emergency" index="1" length="24.710920579823167" shape="5.2040500000000005,-30.14025 9.06415,-22.57335 12.7424,-15.007750000000001 16.181250000000002,-7.9773" speed="36.11111111111111" width="2.914824113046961"/>
		<lane allow="moped bicycle pedestrian custom1 trailer evehicle rail_urban ship private truck vip custom2 authority delivery rail_electric taxi tram army hov coach motorcycle passenger bus rail emergency" index="2" length="24.710920579823167" shape="2.50625,-28.7748 6.434749999999999,-21.0126 10.223199999999999,-13.31005 13.594750000000001,-6.66345" speed="36.11111111111111" width="2.888004380190585"/>
	</edge>
	<edge from="7" function="normal" id="3462" length="8.466645302154802" numLanes="3" priority="1" speed="36.11111111111111" spreadType="center" to="8">
		<lane allow="moped bicycle pedestrian custom1 trailer evehicle rail_urban ship private truck vip custom2 authority delivery rail_electric taxi tram army hov coach motorcycle passenger bus rail emergency" index="0" length="8.466645302154802" shape="18.844700000000003,-9.3154 22.724,-1.75265" speed="36.11111111111111" width="3.047668597469219"/>
		<lane allow="moped bicycle pedestrian custom1 trailer evehicle rail_urban ship private truck vip custom2 authority delivery rail_electric taxi tram army hov coach motorcycle passenger bus rail emergency" index="1" length="8.466645302154802" shape="16.181250000000002,-7.9773 19.99935,-0.3676" speed="36.11111111111111" width="2.914824113046961"/>
		<lane allow="moped bicycle pedestrian custom1 trailer evehicle rail_urban ship private truck vip custom2 authority delivery rail_electric taxi tram army hov coach motorcycle passenger bus rail emergency" index="2" length="8.466645302154802" shape="13.594750000000001,-6.66345 17.3354,0.93205" speed="36.11111111111111" width="2.888004380190585"/>
	</edge>
	<edge from="8" function="normal" id="3468" length="22.238196627283088" numLanes="3" priority="1" speed="36.11111111111111" spreadType="center" to="9">
		<lane allow="moped bicycle pedestrian custom1 trailer evehicle rail_urban ship private truck vip custom2 authority delivery rail_electric taxi tram army hov coach motorcycle passenger bus rail emergency" index="0" length="22.238196627283088" shape="22.724,-1.75265 27.323349999999998,7.5389 32.7,18.219900000000003" speed="36.11111111111111" width="3.03266398567332"/>
		<lane allow="moped bicycle pedestrian custom1 trailer evehicle rail_urban ship private truck vip custom2 authority delivery rail_electric taxi tram army hov coach motorcycle passenger bus rail emergency" index="1" length="22.238196627283088" shape="19.99935,-0.3676 24.6456,8.954149999999998 29.89745,19.55995" speed="36.11111111111111" width="2.9980111023810427"/>
		<lane allow="moped bicycle pedestrian custom1 trailer evehicle rail_urban ship private truck vip custom2 authority delivery rail_electric taxi tram army hov coach motorcycle passenger bus rail emergency" index="2" length="22.238196627283088" shape="17.3354,0.93205 21.95175,10.3311 27.1411,20.89165" speed="36.11111111111111" width="2.9350875710956226"/>
	</edge>
	<edge from="9" function="normal" id="3713" length="29.142816807837434" numLanes="3" priority="1" speed="36.11111111111111" spreadType="center" to="10">
		<lane allow="moped bicycle pedestrian custom1 trailer evehicle rail_urban ship private truck vip custom2 authority delivery rail_electric taxi tram army hov coach motorcycle passenger bus rail emergency" index="0" length="29.142816807837434" shape="32.7,18.219900000000003 36.616150000000005,26.213050000000003 40.56275,34.1596 44.31885,41.770250000000004 45.4922,44.4028" speed="36.11111111111111" width="3.1576335062828327"/>
		<lane allow="moped bicycle pedestrian custom1 trailer evehicle rail_urban ship private truck vip custom2 authority delivery rail_electric taxi tram army hov coach motorcycle passenger rail emergency" index="1" length="29.142816807837434" shape="29.89745,19.55995 33.33495,26.497950000000003 37.28145,34.44455 41.4521,42.94185 42.7371,45.7562" speed="36.11111111111111" width="2.9348672269797813"/>
		<lane allow="moped bicycle pedestrian custom1 trailer evehicle rail_urban ship private truck vip custom2 authority delivery rail_electric taxi tram army hov coach motorcycle passenger bus rail emergency" index="2" length="29.142816807837434" shape="27.1411,20.89165 29.9737,26.591700000000003 33.80845,34.2936 38.647000000000006,44.10495 40.03315,47.084450000000004" speed="36.11111111111111" width="3.0673220453679146"/>
	</edge>
	<edge from="5" function="normal" id="3636" length="10.130444963203738" numLanes="2" priority="1" speed="36.11111111111111" spreadType="center" to="11">
		<lane allow="moped bicycle pedestrian custom1 trailer evehicle rail_urban ship private truck vip custom2 authority delivery rail_electric taxi tram army hov coach motorcycle passenger bus rail emergency" index="0" length="10.130444963203738" shape="-34.136449999999996,-42.022149999999996 -25.125349999999997,-46.707499999999996" speed="36.11111111111111" width="3.232186618993403"/>
		<lane allow="moped bicycle pedestrian custom1 trailer evehicle rail_urban ship private truck vip custom2 authority delivery rail_electric taxi tram army hov coach motorcycle passenger bus rail emergency" index="1" length="10.130444963203738" shape="-32.70565,-39.241550000000004 -23.68095,-43.8438" speed="36.11111111111111" width="3.0254656269738045"/>
	</edge>
	<edge from="11" function="normal" id="3658" length="24.834013362889845" numLanes="2" priority="1" speed="36.11111111111111" spreadType="center" to="12">
		<lane allow="moped bicycle pedestrian custom1 trailer evehicle rail_urban ship private truck vip custom2 authority delivery rail_electric taxi tram army hov coach motorcycle passenger bus rail emergency" index="0" length="24.834013362889845" shape="-25.125349999999997,-46.707499999999996 -22.22955,-48.2134 -19.57405,-49.59415 -16.857100000000003,-51.00685 -13.8688,-52.56075 -11.16715,-53.96565 -8.52245,-55.3408 -5.8069,-56.7528 -3.03515,-58.194050000000004" speed="36.11111111111111" width="3.3089087884074417"/>
		<lane allow="moped bicycle pedestrian custom1 trailer evehicle rail_urban ship private truck vip custom2 authority delivery rail_electric taxi tram army hov coach motorcycle passenger bus rail emergency" index="1" length="24.834013362889845" shape="-23.68095,-43.8438 -20.81295,-45.3064 -18.14195,-46.66845 -15.403649999999999,-48.064800000000005 -12.43905,-49.57655 -9.7286,-50.9588 -7.07865,-52.310050000000004 -4.3442,-53.704350000000005 -1.5574000000000001,-55.1255" speed="36.11111111111111" width="3.10578342612617"/>
	</edge>
	<edge from="12" function="normal" id="3676" length="16.155928389455166" numLanes="2" priority="1" speed="36.11111111111111" spreadType="center" to="13">
		<lane allow="moped bicycle pedestrian custom1 trailer evehicle rail_urban ship private truck vip custom2 authority delivery rail_electric taxi tram army hov coach motorcycle passenger bus rail emergency" index="0" length="16.155928389455166" shape="-3.03515,-58.194050000000004 2.98455,-61.2003 11.4186,-65.4123" speed="36.11111111111111" width="3.5034549033775226"/>
		<lane allow="moped bicycle pedestrian custom1 trailer evehicle rail_urban ship private truck vip custom2 authority delivery rail_electric taxi tram army hov coach motorcycle passenger bus rail emergency" index="1" length="16.155928389455166" shape="-1.5574000000000001,-55.1255 4.46725,-58.1108 12.96345,-62.3207" speed="36.11111111111111" width="3.3082245268421575"/>
	</edge>
	<edge from="13" function="normal" id="3525" length="17.28043527267281" numLanes="3" priority="1" speed="36.11111111111111" spreadType="center" to="14">
		<lane allow="moped bicycle pedestrian custom1 trailer evehicle rail_urban ship private truck vip custom2 authority delivery rail_electric taxi tram army hov coach motorcycle passenger bus rail emergency" index="0" length="17.28043527267281" shape="9.795549999999999,-68.7404 18.52285,-73.03545 25.311149999999998,-76.37625" speed="36.11111111111111" width="3.8739027478758414"/>
		<lane allow="moped bicycle pedestrian custom1 trailer evehicle rail_urban ship private truck vip custom2 authority delivery rail_electric taxi tram army hov coach motorcycle passenger bus rail emergency" index="1" length="17.28043527267281" shape="11.4186,-65.4123 20.14575,-69.70585 26.945,-73.0509" speed="36.11111111111111" width="3.511789538113012"/>
		<lane allow="moped bicycle pedestrian custom1 trailer evehicle rail_urban ship private truck vip custom2 authority delivery rail_electric taxi tram army hov coach motorcycle passenger bus rail emergency" index="2" length="17.28043527267281" shape="12.96345,-62.3207 21.64225,-66.58930000000001 28.4698,-69.9474" speed="36.11111111111111" width="3.3794967495175916"/>
	</edge>
	<edge from="5" function="normal" id="3600" length="24.197467511365534" numLanes="1" priority="1" speed="36.11111111111111" spreadType="center" to="15">
		<lane allow="moped bicycle pedestrian custom1 trailer evehicle rail_urban ship private vip custom2 authority delivery rail_electric taxi tram army hov coach motorcycle passenger rail emergency" index="0" length="24.197467511365534" shape="-34.136449999999996,-42.022149999999996 -29.64815,-44.4171 -27.65515,-45.607200000000006 -26.0521,-46.517799999999994 -25.309,-46.997749999999996 -24.884900000000002,-47.58535 -24.8491,-48.3923 -25.256300000000003,-49.8039 -26.0572,-51.77005 -27.03765,-53.868399999999994 -29.830550000000002,-59.87035" speed="36.11111111111111" width="3.232186618993403"/>
	</edge>
	<edge from="15" function="normal" id="3542" length="74.2461753523541" numLanes="3" priority="1" speed="36.11111111111111" spreadType="center" to="16">
		<lane allow="moped bicycle pedestrian custom1 trailer evehicle rail_urban ship private truck vip custom2 authority delivery rail_electric taxi tram army hov coach motorcycle passenger bus rail emergency" index="0" length="74.2461753523541" shape="-29.830550000000002,-59.87035 -33.99185,-68.40905000000001 -38.045100000000005,-77.33905 -41.81715,-86.05755 -45.441900000000004,-95.3015 -49.15689999999999,-104.35935 -52.84055,-113.38695 -56.5246,-122.4454 -58.81165,-128.2414" speed="36.11111111111111" width="2.8235974571457603"/>
		<lane allow="moped bicycle pedestrian custom1 trailer evehicle rail_urban ship private truck vip custom2 authority delivery rail_electric taxi tram army hov coach motorcycle passenger bus rail emergency" index="1" length="74.2461753523541" shape="-26.9869,-61.363 -31.2303,-69.9178 -35.31245,-78.7012 -39.0531,-87.3894 -42.7071,-96.50970000000001 -46.3602,-105.56854999999999 -50.01165,-114.5042 -53.60295,-123.564 -55.9942,-129.6877" speed="36.11111111111111" width="2.969358961122752"/>
		<lane allow="moped bicycle pedestrian custom1 trailer evehicle rail_urban ship private truck vip custom2 authority delivery rail_electric taxi tram army hov coach motorcycle passenger bus rail emergency" index="2" length="74.2461753523541" shape="-24.33885,-62.75295 -28.56165,-71.4329 -32.612,-80.15520000000001 -36.38355,-88.84299999999999 -39.8784,-97.64235 -43.5339,-106.87045 -47.18575,-115.83695 -50.65255,-124.83685 -53.1637,-131.14075" speed="36.11111111111111" width="2.9622015478356603"/>
	</edge>
	<edge from="17" function="normal" id="3532" length="13.634900230131372" numLanes="2" priority="1" speed="36.11111111111111" spreadType="center" to="18">
		<lane allow="moped bicycle pedestrian custom1 trailer evehicle rail_urban ship private truck vip custom2 authority delivery rail_electric taxi tram army hov coach motorcycle passenger bus rail emergency" index="0" length="13.634900230131372" shape="33.0155,-60.69555 26.08285,-57.3067 20.73845,-54.69415" speed="36.11111111111111" width="3.607231317783765"/>
		<lane allow="moped bicycle pedestrian custom1 trailer evehicle rail_urban ship private truck vip custom2 authority delivery rail_electric taxi tram army hov coach motorcycle passenger bus rail emergency" index="1" length="13.634900230131372" shape="31.41085,-63.9615 24.55235,-60.6083 19.1615,-57.97285" speed="36.11111111111111" width="3.623546501702438"/>
	</edge>
	<edge from="18" function="normal" id="3534" length="6.5755773961303206" numLanes="3" priority="1" speed="36.11111111111111" spreadType="center" to="19">
		<lane allow="moped bicycle pedestrian custom1 trailer evehicle rail_urban ship private truck vip custom2 authority delivery rail_electric taxi tram army hov coach motorcycle passenger bus rail emergency" index="0" length="6.5755773961303206" shape="20.73845,-54.69415 16.3156,-48.6723" speed="36.11111111111111" width="3.24573724136751"/>
		<lane allow="moped bicycle pedestrian custom1 trailer evehicle rail_urban ship private truck vip custom2 authority delivery rail_electric taxi tram army hov coach motorcycle passenger bus rail emergency" index="1" length="6.5755773961303206" shape="20.73845,-54.69415 14.82645,-51.754149999999996" speed="36.11111111111111" width="3.602433613545158"/>
		<lane allow="moped bicycle pedestrian custom1 trailer evehicle rail_urban ship private truck vip custom2 authority delivery rail_electric taxi tram army hov coach motorcycle passenger bus rail emergency" index="2" length="6.5755773961303206" shape="19.1615,-57.97285 13.27345,-55.04555" speed="36.11111111111111" width="3.6713079753679083"/>
	</edge>
	<edge from="19" function="normal" id="3536" length="6.608363657139339" numLanes="3" priority="1" speed="36.11111111111111" spreadType="center" to="20">
		<lane allow="moped bicycle pedestrian custom1 trailer evehicle rail_urban ship private truck vip custom2 authority delivery rail_electric taxi tram army hov coach motorcycle passenger bus rail emergency" index="0" length="6.608363657139339" shape="16.3156,-48.6723 10.33605,-45.782849999999996" speed="36.11111111111111" width="3.190167196245363"/>
		<lane allow="moped bicycle pedestrian custom1 trailer evehicle rail_urban ship private truck vip custom2 authority delivery rail_electric taxi tram army hov coach motorcycle passenger bus rail emergency" index="1" length="6.608363657139339" shape="14.82645,-51.754149999999996 8.8863,-48.8094" speed="36.11111111111111" width="3.5215687697388507"/>
		<lane allow="moped bicycle pedestrian custom1 trailer evehicle rail_urban ship private truck vip custom2 authority delivery rail_electric taxi tram army hov coach motorcycle passenger bus rail emergency" index="2" length="6.608363657139339" shape="13.27345,-55.04555 7.3634,-52.088899999999995" speed="36.11111111111111" width="3.6773714878972954"/>
	</edge>
	<edge from="20" function="normal" id="3620" length="6.669397413559939" numLanes="2" priority="1" speed="36.11111111111111" spreadType="center" to="21">
		<lane allow="moped bicycle pedestrian custom1 trailer evehicle rail_urban ship private truck vip custom2 authority delivery rail_electric taxi tram army hov coach motorcycle passenger bus rail emergency" index="0" length="6.669397413559939" shape="8.8863,-48.8094 2.9088000000000003,-45.851299999999995" speed="36.11111111111111" width="3.455821945644768"/>
		<lane allow="moped bicycle pedestrian custom1 trailer evehicle rail_urban ship private truck vip custom2 authority delivery rail_electric taxi tram army hov coach motorcycle passenger bus rail emergency" index="1" length="6.669397413559939" shape="7.3634,-52.088899999999995 1.35595,-49.0758" speed="36.11111111111111" width="3.702039012490279"/>
	</edge>
	<edge from="21" function="normal" id="3662" length="24.644895567956997" numLanes="2" priority="1" speed="36.11111111111111" spreadType="center" to="22">
		<lane allow="moped bicycle pedestrian custom1 trailer evehicle rail_urban ship private truck vip custom2 authority delivery rail_electric taxi tram army hov coach motorcycle passenger bus rail emergency" index="0" length="24.644895567956997" shape="2.9088000000000003,-45.851299999999995 0.09225,-44.457449999999994 -2.68455,-43.083299999999994 -5.33395,-41.7721 -8.056049999999999,-40.424949999999995 -10.92775,-39.00375 -13.716550000000002,-37.623599999999996 -16.418599999999998,-36.2864 -19.1792,-34.920100000000005" speed="36.11111111111111" width="3.213340816035547"/>
		<lane allow="moped bicycle pedestrian custom1 trailer evehicle rail_urban ship private truck vip custom2 authority delivery rail_electric taxi tram army hov coach motorcycle passenger bus rail emergency" index="1" length="24.644895567956997" shape="1.35595,-49.0758 -1.44855,-47.6691 -4.209099999999999,-46.28525 -6.85715,-44.9566 -9.57385,-43.595150000000004 -12.47565,-42.137550000000005 -15.2444,-40.74745 -17.93425,-39.398250000000004 -20.7308,-37.9952" speed="36.11111111111111" width="3.675404375031404"/>
	</edge>
	<edge from="22" function="normal" id="3640" length="10.509859510002975" numLanes="2" priority="1" speed="36.11111111111111" spreadType="center" to="23">
		<lane allow="moped bicycle pedestrian custom1 trailer evehicle rail_urban ship private truck vip custom2 authority delivery rail_electric taxi tram army hov coach motorcycle passenger bus rail emergency" index="0" length="10.509859510002975" shape="-19.1792,-34.920100000000005 -29.0127,-30.0987" speed="36.11111111111111" width="3.1673785817296913"/>
		<lane allow="moped bicycle pedestrian custom1 trailer evehicle rail_urban ship private truck vip custom2 authority delivery rail_electric taxi tram army hov coach motorcycle passenger bus rail emergency" index="1" length="10.509859510002975" shape="-20.7308,-37.9952 -30.1484,-33.3298" speed="36.11111111111111" width="3.675404375031404"/>
	</edge>
	<edge from="23" function="normal" id="3517" length="14.496753904957336" numLanes="3" priority="1" speed="36.11111111111111" spreadType="center" to="24">
		<lane allow="moped bicycle pedestrian custom1 trailer evehicle rail_urban ship private truck vip custom2 authority delivery rail_electric taxi tram army hov coach motorcycle passenger bus rail emergency" index="0" length="14.496753904957336" shape="-27.2954,-25.644750000000002 -36.5089,-21.205350000000003 -40.257400000000004,-19.1615" speed="36.11111111111111" width="5.13090683992606"/>
		<lane allow="moped bicycle pedestrian custom1 trailer evehicle rail_urban ship private truck vip custom2 authority delivery rail_electric taxi tram army hov coach motorcycle passenger bus rail emergency" index="1" length="14.496753904957336" shape="-29.0127,-30.0987 -38.40315,-25.05665 -42.08865,-22.85295" speed="36.11111111111111" width="3.110520139783699"/>
		<lane allow="moped bicycle pedestrian custom1 trailer evehicle rail_urban ship private truck vip custom2 authority delivery rail_electric taxi tram army hov coach motorcycle passenger bus rail emergency" index="2" length="14.496753904957336" shape="-30.1484,-33.3298 -39.930099999999996,-28.08215 -43.5955,-25.890500000000003" speed="36.11111111111111" width="3.664585112942525"/>
	</edge>
	<edge from="20" function="normal" id="3668" length="38.24329000786904" numLanes="1" priority="1" speed="36.11111111111111" spreadType="center" to="15">
		<lane allow="moped bicycle pedestrian custom1 trailer evehicle rail_urban ship private vip custom2 authority delivery rail_electric taxi tram army hov coach motorcycle passenger rail emergency" index="0" length="38.24329000786904" shape="7.3634,-52.088899999999995 4.02635,-50.980199999999996 1.0922,-50.17335 -1.4034499999999999,-49.42575 -3.8188,-49.1222 -6.02065,-49.03725 -7.556850000000001,-49.1656 -9.5271,-49.3724 -11.1312,-49.64975 -13.079,-49.9631 -14.887699999999999,-50.7201 -16.4236,-51.9702 -17.86325,-53.8798 -20.56355,-57.55755 -24.33885,-62.75295" speed="36.11111111111111" width="3.0119886487169896"/>
	</edge>
	<edge from="20" function="normal" id="3602" length="16.40731935125664" numLanes="1" priority="1" speed="36.11111111111111" spreadType="center" to="6">
		<lane allow="moped bicycle pedestrian custom1 trailer evehicle rail_urban ship private vip custom2 authority delivery rail_electric taxi tram army hov coach motorcycle passenger rail emergency" index="0" length="16.40731935125664" shape="10.33605,-45.782849999999996 8.48345,-44.4987 7.333399999999999,-43.282 6.4056999999999995,-41.653 5.82825,-39.844300000000004 5.7703500000000005,-38.47385 6.1328,-36.3476 6.9839,-33.97235 8.0329,-31.5345" speed="36.11111111111111" width="2.9347200002725997"/>
	</edge>
	<edge from="9" function="normal" id="3718" length="22.83123774153202" numLanes="1" priority="1" speed="36.11111111111111" spreadType="center" to="25">
		<lane allow="moped bicycle pedestrian custom1 trailer evehicle rail_urban ship private vip custom2 authority delivery rail_electric taxi tram army hov coach motorcycle passenger rail emergency" index="0" length="22.83123774153202" shape="32.7,18.219900000000003 35.3217,21.5916 37.386449999999996,23.5068 39.98025,24.680500000000002 44.60855,25.0844 52.8585,25.22165" speed="36.11111111111111" width="3.1576335062828327"/>
	</edge>
	<edge from="25" function="normal" id="3500" length="9.586145870473706" numLanes="1" priority="1" speed="36.11111111111111" spreadType="center" to="26">
		<lane allow="moped bicycle pedestrian custom1 trailer evehicle rail_urban ship private truck vip custom2 authority delivery rail_electric taxi tram army hov coach motorcycle passenger bus rail emergency" index="0" length="9.586145870473706" shape="52.8585,25.22165 62.4393,24.90155" speed="36.11111111111111" width="5.358070392408074"/>
	</edge>
	<edge from="27" function="normal" id="3555" length="8.747302513489485" numLanes="4" priority="1" speed="36.11111111111111" spreadType="center" to="28">
		<lane allow="moped bicycle pedestrian custom1 trailer evehicle rail_urban ship private truck vip custom2 authority delivery rail_electric taxi tram army hov coach motorcycle passenger bus rail emergency" index="0" length="8.747302513489485" shape="-40.4922,-137.64569999999998 -36.516,-129.85435" speed="36.11111111111111" width="3.5111446353005746"/>
		<lane allow="moped bicycle pedestrian custom1 trailer evehicle rail_urban ship private truck vip custom2 authority delivery rail_electric taxi tram army hov coach motorcycle passenger bus rail emergency" index="1" length="8.747302513489485" shape="-43.436,-136.1345 -39.4056,-128.25254999999999" speed="36.11111111111111" width="2.994263381868733"/>
		<lane allow="moped bicycle pedestrian custom1 trailer evehicle rail_urban ship private truck vip custom2 authority delivery rail_electric taxi tram army hov coach motorcycle passenger bus rail emergency" index="2" length="8.747302513489485" shape="-46.1355,-134.74874999999997 -42.0473,-126.7154" speed="36.11111111111111" width="3.0122116393108884"/>
		<lane allow="moped bicycle pedestrian custom1 trailer evehicle rail_urban ship private truck vip custom2 authority delivery rail_electric taxi tram army hov coach motorcycle passenger bus rail emergency" index="3" length="8.747302513489485" shape="-48.91345,-133.32265 -44.7325,-125.277" speed="36.11111111111111" width="3.0805742451692346"/>
	</edge>
	<edge from="28" function="normal" id="3559" length="17.69293538209547" numLanes="5" priority="1" speed="36.11111111111111" spreadType="center" to="29">
		<lane allow="moped bicycle pedestrian custom1 trailer evehicle rail_urban ship private truck vip custom2 authority delivery rail_electric taxi tram army hov coach motorcycle passenger bus rail emergency" index="0" length="17.69293538209547" shape="-36.516,-129.85435 -33.1703,-122.88669999999999 -28.661250000000003,-113.80789999999999" speed="36.11111111111111" width="3.5111446353005746"/>
		<lane allow="moped bicycle pedestrian custom1 trailer evehicle rail_urban ship private truck vip custom2 authority delivery rail_electric taxi tram army hov coach motorcycle passenger bus rail emergency" index="1" length="17.69293538209547" shape="-39.4056,-128.25254999999999 -36.0108,-121.32740000000001 -31.450499999999998,-112.21685" speed="36.11111111111111" width="2.8911201583469297"/>
		<lane allow="moped bicycle pedestrian custom1 trailer evehicle rail_urban ship private truck vip custom2 authority delivery rail_electric taxi tram army hov coach motorcycle passenger bus rail emergency" index="2" length="17.69293538209547" shape="-42.0473,-126.7154 -38.7008,-119.92805000000001 -34.1405,-110.81755000000001" speed="36.11111111111111" width="3.0122116393108884"/>
		<lane allow="moped bicycle pedestrian custom1 trailer evehicle rail_urban ship private truck vip custom2 authority delivery rail_electric taxi tram army hov coach motorcycle passenger bus rail emergency" index="3" length="17.69293538209547" shape="-44.7325,-125.277 -41.37165,-118.56685 -36.8113,-109.4563" speed="36.11111111111111" width="2.8198292501497373"/>
		<lane allow="moped bicycle pedestrian custom1 trailer evehicle rail_urban ship private truck vip custom2 authority delivery rail_electric taxi tram army hov coach motorcycle passenger rail emergency" index="4" length="17.69293538209547" shape="-44.7325,-125.277 -42.8999,-117.54185000000001 -39.41905,-108.00354999999999" speed="36.11111111111111" width="2.9068515975192115"/>
	</edge>
	<edge from="29" function="normal" id="3568" length="47.08668512312134" numLanes="5" priority="1" speed="36.11111111111111" spreadType="center" to="30">
		<lane allow="moped bicycle pedestrian custom1 trailer evehicle rail_urban ship private truck vip custom2 authority delivery rail_electric taxi tram army hov coach motorcycle passenger bus rail emergency" index="0" length="47.08668512312134" shape="-28.661250000000003,-113.80789999999999 -24.46225,-105.3529 -20.2046,-96.77834999999999 -15.76615,-87.84235 -11.46755,-79.3814 -7.28205,-71.73230000000001" speed="36.11111111111111" width="3.34614886996977"/>