<!-- generated on 2020-12-18 15:57:35.933637 by ipykernel_launcher.py v1_2_0+5214-53edc58fcd
-->
<nodes>
	<node id="1" type="from" x="62.64995" y="29.961599999999997"/>
	<node id="2" type="to" x="53.069199999999995" y="30.2817"/>
	<node id="3" type="to" x="45.61175" y="44.344049999999996"/>
	<node id="4" type="from" x="-46.766349999999996" y="-32.2825"/>
	<node id="5" type="to" x="-32.74699999999999" y="-39.248666666666665"/>
	<node id="6" type="to" x="2.50625" y="-28.7748"/>
	<node id="7" type="to" x="16.206900000000005" y="-7.985383333333334"/>
	<node id="8" type="to" x="20.019583333333333" y="-0.3960666666666666"/>
	<node id="9" type="to" x="29.912850000000002" y="19.557166666666667"/>
	<node id="10" type="to" x="42.75415" y="45.747816666666665"/>
	<node id="11" type="to" x="-24.403149999999997" y="-45.27565"/>
	<node id="12" type="to" x="-2.296275" y="-56.659775"/>
	<node id="13" type="to" x="12.191025" y="-63.8665"/>
	<node id="14" type="to" x="26.908649999999998" y="-73.12485"/>
	<node id="15" type="to" x="-29.830550000000002" y="-59.87035"/>
	<node id="16" type="to" x="-55.98985" y="-129.68994999999998"/>
	<node id="17" type="from" x="32.213175" y="-62.328525"/>
	<node id="18" type="to" x="19.949975000000002" y="-56.3335"/>
	<node id="19" type="to" x="14.805166666666665" y="-51.82399999999999"/>
	<node id="20" type="to" x="8.861916666666666" y="-48.89371666666667"/>
	<node id="21" type="to" x="2.132375" y="-47.46355"/>
	<node id="22" type="to" x="-19.955" y="-36.45765"/>
	<node id="23" type="to" x="-29.58055" y="-31.71425"/>
	<node id="24" type="to" x="-41.98051666666667" y="-22.634983333333334"/>
	<node id="25" type="to" x="52.8585" y="25.22165"/>
	<node id="26" type="to" x="62.4393" y="24.90155"/>
	<node id="27" type="from" x="-44.7442875" y="-135.4629"/>
	<node id="28" type="to" x="-40.675349999999995" y="-127.52482499999999"/>
	<node id="29" type="to" x="-34.096520000000005" y="-110.86043"/>
	<node id="30" type="to" x="-13.0417" y="-68.69566"/>
	<node id="31" type="to" x="-7.892216666666666" y="-57.62173333333333"/>
	<node id="32" type="to" x="-0.5322" y="-42.24623333333333"/>
	<node id="33" type="from" x="31.87876" y="51.09008"/>
	<node id="34" type="to" x="18.92012" y="24.715159999999997"/>
	<node id="35" type="to" x="9.15855" y="5.03816"/>
	<node id="36" type="to" x="3.9843916666666668" y="-1.8774166666666667"/>
	<node id="37" type="to" x="-7.011824999999999" y="-23.973391666666668"/>
	<node id="38" type="to" x="-14.3439" y="-35.49533333333333"/>
	<node id="39" type="to" x="-21.670200000000005" y="-50.38951666666666"/>
</nodes>
