<?xml version="1.0" encoding="UTF-8"?>

<!-- generated on Fri Dec 18 15:57:36 2020 by Eclipse SUMO netconvert Version 1.8.0
<configuration xmlns:xsi="http://www.w3.org/2001/XMLSchema-instance" xsi:noNamespaceSchemaLocation="http://sumo.dlr.de/xsd/netconvertConfiguration.xsd">

    <input>
        <node-files value="./converted_scenarios/NGSIM/Lankershim/USA_Lanker-2_10_I-1-1/nodes.net.xml"/>
        <edge-files value="./converted_scenarios/NGSIM/Lankershim/USA_Lanker-2_10_I-1-1/edges.net.xml"/>
        <connection-files value="./converted_scenarios/NGSIM/Lankershim/USA_Lanker-2_10_I-1-1/_connections.net.xml"/>
        <tllogic-files value="./converted_scenarios/NGSIM/Lankershim/USA_Lanker-2_10_I-1-1/_tll.net.xml"/>
    </input>

    <output>
        <output-file value="./converted_scenarios/NGSIM/Lankershim/USA_Lanker-2_10_I-1-1/USA_Lanker-2_10_I-1-1.net.xml"/>
    </output>

    <processing>
        <plain.extend-edge-shape value="true"/>
        <geometry.remove.keep-edges.explicit value="true"/>
        <geometry.avoid-overlap value="true"/>
        <offset.disable-normalization value="true"/>
    </processing>

    <junctions>
        <no-turnarounds value="true"/>
        <junctions.internal-link-detail value="20"/>
    </junctions>

    <report>
        <aggregate-warnings value="5"/>
    </report>

    <random_number>
        <seed value="1234"/>
    </random_number>

</configuration>
-->

<net version="1.6" junctionCornerDetail="5" junctionLinkDetail="20" limitTurnSpeed="5.50" xmlns:xsi="http://www.w3.org/2001/XMLSchema-instance" xsi:noNamespaceSchemaLocation="http://sumo.dlr.de/xsd/net_file.xsd">

    <location netOffset="0.00,0.00" convBoundary="-55.99,-135.46,62.65,51.09" origBoundary="-58.81,-137.65,62.65,53.71" projParameter="!"/>

    <edge id=":11_0" function="internal">
        <lane id=":11_0_0" index="0" disallow="rail_fast" speed="36.11" length="0.26" width="3.31" shape="-23.58,-47.51 -23.81,-47.39"/>
        <lane id=":11_0_1" index="1" disallow="rail_fast" speed="36.11" length="0.26" width="3.11" shape="-22.11,-44.64 -22.34,-44.53"/>
    </edge>
    <edge id=":12_0" function="internal">
        <lane id=":12_0_0" index="0" disallow="rail_fast" speed="36.11" length="3.06" width="3.50" shape="-4.44,-57.47 -1.70,-58.86"/>
        <lane id=":12_0_1" index="1" disallow="rail_fast" speed="36.11" length="3.06" width="3.31" shape="-2.92,-54.43 -0.20,-55.80"/>
    </edge>
    <edge id=":13_0" function="internal">
        <lane id=":13_0_0" index="0" disallow="bus truck rail_fast" speed="11.02" length="10.30" width="3.87" shape="0.97,-67.83 1.63,-67.66 2.23,-67.52 2.79,-67.40 3.30,-67.30 3.77,-67.22 4.21,-67.17 4.62,-67.14 5.01,-67.13 5.40,-67.15 5.77,-67.19 6.15,-67.26 6.54,-67.35 6.93,-67.48 7.35,-67.63 7.79,-67.81 8.27,-68.01 8.79,-68.25 9.35,-68.52 9.96,-68.82"/>
        <lane id=":13_0_1" index="1" disallow="bus truck rail_fast" speed="12.20" length="10.30" width="3.51" shape="0.85,-64.27 1.64,-64.09 2.37,-63.93 3.03,-63.79 3.64,-63.67 4.20,-63.59 4.73,-63.52 5.22,-63.49 5.69,-63.48 6.15,-63.50 6.60,-63.56 7.05,-63.64 7.51,-63.75 7.98,-63.90 8.48,-64.08 9.01,-64.29 9.58,-64.54 10.19,-64.82 10.86,-65.14 11.60,-65.50"/>
    </edge>
    <edge id=":13_2" function="internal">
        <lane id=":13_2_0" index="0" disallow="bus truck rail_fast" speed="36.11" length="11.23" width="3.51" shape="1.63,-60.25 11.60,-65.50"/>
        <lane id=":13_2_1" index="1" disallow="bus truck rail_fast" speed="36.11" length="11.23" width="3.38" shape="3.37,-56.94 4.06,-57.42 4.68,-57.85 5.24,-58.24 5.75,-58.58 6.23,-58.89 6.67,-59.16 7.08,-59.41 7.48,-59.64 7.88,-59.86 8.27,-60.06 8.67,-60.26 9.09,-60.47 9.53,-60.68 10.00,-60.90 10.51,-61.14 11.07,-61.41 11.69,-61.70 12.37,-62.03 13.12,-62.40"/>
    </edge>
    <edge id=":13_4" function="internal">
        <lane id=":13_4_0" index="0" disallow="rail_fast" speed="36.11" length="13.86" width="3.51" shape="-0.81,-59.30 11.60,-65.50"/>
        <lane id=":13_4_1" index="1" disallow="rail_fast" speed="36.11" length="13.86" width="3.38" shape="0.71,-56.25 13.12,-62.40"/>
    </edge>
    <edge id=":15_0" function="internal">
        <lane id=":15_0_0" index="0" disallow="rail_fast" speed="36.11" length="19.07" width="2.82" shape="-23.27,-46.64 -31.71,-63.74"/>
        <lane id=":15_0_1" index="1" disallow="rail_fast" speed="36.11" length="19.07" width="2.97" shape="-20.49,-48.07 -28.88,-65.19"/>
        <lane id=":15_0_2" index="2" disallow="rail_fast" speed="36.11" length="19.07" width="2.96" shape="-17.80,-49.45 -26.19,-66.57"/>
    </edge>
    <edge id=":15_3" function="internal">
        <lane id=":15_3_0" index="0" disallow="bus truck rail_fast" speed="13.68" length="23.17" width="2.96" shape="-11.38,-49.69 -12.13,-49.85 -12.89,-50.09 -13.65,-50.42 -14.42,-50.82 -15.18,-51.31 -15.95,-51.87 -16.72,-52.52 -17.50,-53.24 -18.28,-54.05 -19.06,-54.94 -19.84,-55.91 -20.62,-56.96 -21.41,-58.09 -22.20,-59.30 -22.99,-60.59 -23.79,-61.96 -24.59,-63.42 -25.39,-64.95 -26.19,-66.57"/>
    </edge>
    <edge id=":15_4" function="internal">
        <lane id=":15_4_0" index="0" disallow="bus truck rail_fast" speed="36.11" length="4.30" width="2.82" shape="-29.83,-59.87 -31.71,-63.74"/>
    </edge>
    <edge id=":18_0" function="internal">
        <lane id=":18_0_0" index="0" disallow="rail_fast" speed="14.45" length="8.28" width="3.25" shape="24.39,-56.48 23.84,-56.21 23.35,-55.97 22.91,-55.74 22.51,-55.53 22.15,-55.33 21.82,-55.13 21.52,-54.94 21.24,-54.75 20.98,-54.55 20.73,-54.33 20.49,-54.11 20.25,-53.86 20.01,-53.60 19.76,-53.30 19.50,-52.98 19.23,-52.62 18.93,-52.23 18.60,-51.79 18.25,-51.30"/>
        <lane id=":18_0_1" index="1" disallow="rail_fast" speed="36.11" length="8.28" width="3.60" shape="24.39,-56.48 17.15,-52.91"/>
        <lane id=":18_0_2" index="2" disallow="rail_fast" speed="36.11" length="8.28" width="3.67" shape="22.80,-59.75 15.09,-55.95"/>
    </edge>
    <edge id=":19_0" function="internal">
        <lane id=":19_0_0" index="0" disallow="rail_fast" speed="9.74" length="3.41" width="3.19" shape="16.91,-49.48 16.75,-49.26 16.59,-49.07 16.45,-48.91 16.31,-48.76 16.18,-48.63 16.05,-48.52 15.92,-48.43 15.80,-48.34 15.67,-48.27 15.53,-48.20 15.40,-48.14 15.25,-48.08 15.10,-48.01 14.93,-47.95 14.75,-47.88 14.56,-47.80 14.35,-47.71 14.12,-47.61 13.87,-47.49"/>
        <lane id=":19_0_1" index="1" disallow="rail_fast" speed="36.11" length="3.41" width="3.52" shape="15.43,-52.06 12.40,-50.55"/>
        <lane id=":19_0_2" index="2" disallow="rail_fast" speed="36.11" length="3.41" width="3.68" shape="13.62,-55.22 10.82,-53.82"/>
    </edge>
    <edge id=":2_0" function="internal">
        <lane id=":2_0_0" index="0" disallow="bus truck rail_fast" speed="8.75" length="5.40" width="3.35" shape="53.47,30.27 53.07,30.28 52.72,30.30 52.39,30.32 52.09,30.34 51.82,30.36 51.56,30.40 51.33,30.44 51.11,30.49 50.90,30.56 50.69,30.64 50.49,30.73 50.29,30.83 50.09,30.96 49.88,31.10 49.66,31.26 49.42,31.45 49.17,31.66 48.90,31.89 48.60,32.15"/>
    </edge>
    <edge id=":20_0" function="internal">
        <lane id=":20_0_0" index="0" disallow="bus truck rail_fast" speed="14.27" length="3.68" width="2.93" shape="11.25,-46.22 11.00,-46.11 10.78,-46.00 10.58,-45.91 10.39,-45.82 10.22,-45.74 10.06,-45.67 9.92,-45.60 9.78,-45.53 9.65,-45.46 9.53,-45.38 9.40,-45.30 9.28,-45.21 9.15,-45.11 9.02,-45.01 8.88,-44.88 8.74,-44.74 8.58,-44.59 8.40,-44.41 8.22,-44.22"/>
    </edge>
    <edge id=":20_1" function="internal">
        <lane id=":20_1_0" index="0" disallow="rail_fast" speed="36.11" length="4.87" width="3.46" shape="9.80,-49.26 5.45,-47.11"/>
        <lane id=":20_1_1" index="1" disallow="rail_fast" speed="36.11" length="4.87" width="3.70" shape="8.24,-52.53 3.87,-50.34"/>
    </edge>
    <edge id=":20_3" function="internal">
        <lane id=":20_3_0" index="0" disallow="bus truck rail_fast" speed="36.11" length="4.93" width="3.01" shape="8.24,-52.53 7.91,-52.36 7.61,-52.22 7.34,-52.09 7.09,-51.97 6.87,-51.87 6.66,-51.78 6.46,-51.70 6.27,-51.63 6.08,-51.56 5.90,-51.50 5.71,-51.44 5.51,-51.38 5.31,-51.32 5.08,-51.26 4.84,-51.20 4.58,-51.13 4.29,-51.05 3.97,-50.96 3.61,-50.87"/>
    </edge>
    <edge id=":21_0" function="internal">
        <lane id=":21_0_0" index="0" disallow="rail_fast" speed="36.11" length="3.05" width="3.21" shape="4.27,-46.53 1.54,-45.17"/>
        <lane id=":21_0_1" index="1" disallow="rail_fast" speed="36.11" length="3.05" width="3.68" shape="2.69,-49.75 -0.03,-48.38"/>
    </edge>
    <edge id=":22_0" function="internal">
        <lane id=":22_0_0" index="0" disallow="rail_fast" speed="36.11" length="10.83" width="3.17" shape="-9.98,-39.47 -19.69,-34.67"/>
        <lane id=":22_0_1" index="1" disallow="rail_fast" speed="36.11" length="10.83" width="3.68" shape="-11.55,-42.60 -21.23,-37.75"/>
    </edge>
    <edge id=":22_2" function="internal">
        <lane id=":22_2_0" index="0" disallow="bus truck rail_fast" speed="9.83" length="11.33" width="3.68" shape="-14.59,-46.38 -14.72,-45.77 -14.87,-45.18 -15.04,-44.60 -15.24,-44.05 -15.46,-43.51 -15.71,-42.99 -15.98,-42.48 -16.28,-41.99 -16.60,-41.52 -16.95,-41.07 -17.33,-40.63 -17.73,-40.21 -18.15,-39.81 -18.60,-39.42 -19.08,-39.05 -19.58,-38.70 -20.10,-38.37 -20.65,-38.05 -21.23,-37.75"/>
    </edge>
    <edge id=":23_0" function="internal">
        <lane id=":23_0_0" index="0" disallow="bus truck rail_fast" speed="36.11" length="4.83" width="5.13" shape="-33.85,-23.52 -29.17,-24.74"/>
    </edge>
    <edge id=":23_1" function="internal">
        <lane id=":23_1_0" index="0" disallow="rail_fast" speed="36.11" length="4.52" width="3.11" shape="-26.93,-31.12 -30.96,-29.05"/>
        <lane id=":23_1_1" index="1" disallow="rail_fast" speed="36.11" length="4.52" width="3.66" shape="-28.26,-34.27 -32.27,-32.19"/>
    </edge>
    <edge id=":25_0" function="internal">
        <lane id=":25_0_0" index="0" disallow="bus truck rail_fast" speed="36.11" length="2.87" width="5.36" shape="51.42,25.20 54.30,25.17"/>
    </edge>
    <edge id=":28_0" function="internal">
        <lane id=":28_0_0" index="0" disallow="rail_fast" speed="36.11" length="7.96" width="3.51" shape="-38.06,-132.87 -34.45,-125.54"/>
        <lane id=":28_0_1" index="1" disallow="rail_fast" speed="36.11" length="7.96" width="2.89" shape="-40.96,-131.29 -37.37,-124.10"/>
        <lane id=":28_0_2" index="2" disallow="rail_fast" speed="36.11" length="7.96" width="3.01" shape="-43.63,-129.83 -40.09,-122.75"/>
        <lane id=":28_0_3" index="3" disallow="rail_fast" speed="36.11" length="7.96" width="2.82" shape="-46.33,-128.36 -42.80,-121.42"/>
        <lane id=":28_0_4" index="4" disallow="bus rail_fast" speed="36.11" length="7.96" width="2.91" shape="-46.33,-128.36 -46.06,-127.83 -45.82,-127.36 -45.61,-126.93 -45.42,-126.54 -45.25,-126.18 -45.10,-125.85 -44.96,-125.53 -44.84,-125.23 -44.73,-124.94 -44.63,-124.64 -44.54,-124.34 -44.45,-124.02 -44.36,-123.69 -44.27,-123.33 -44.18,-122.95 -44.08,-122.52 -43.97,-122.06 -43.85,-121.54 -43.71,-120.97"/>
    </edge>
    <edge id=":29_0" function="internal">
        <lane id=":29_0_0" index="0" disallow="rail_fast" speed="36.11" length="3.88" width="3.35" shape="-29.67,-115.84 -27.97,-112.41"/>
        <lane id=":29_0_1" index="1" disallow="rail_fast" speed="36.11" length="3.88" width="2.89" shape="-32.52,-114.36 -30.80,-110.92"/>
        <lane id=":29_0_2" index="2" disallow="rail_fast" speed="36.11" length="3.88" width="3.08" shape="-35.21,-112.96 -33.48,-109.50"/>
        <lane id=":29_0_3" index="3" disallow="rail_fast" speed="36.11" length="3.88" width="2.82" shape="-37.87,-111.58 -36.13,-108.09"/>
        <lane id=":29_0_4" index="4" disallow="bus rail_fast" speed="36.11" length="3.88" width="3.05" shape="-40.27,-110.34 -40.17,-110.06 -40.08,-109.81 -40.00,-109.58 -39.92,-109.38 -39.86,-109.19 -39.79,-109.02 -39.74,-108.85 -39.68,-108.70 -39.62,-108.55 -39.57,-108.41 -39.51,-108.26 -39.44,-108.11 -39.37,-107.96 -39.30,-107.79 -39.22,-107.61 -39.12,-107.41 -39.02,-107.19 -38.90,-106.95 -38.77,-106.69"/>
    </edge>
    <edge id=":30_0" function="internal">
        <lane id=":30_0_0" index="0" disallow="bus truck rail_fast" speed="10.23" length="10.24" width="3.11" shape="-8.24,-73.49 -8.01,-73.08 -7.75,-72.69 -7.47,-72.32 -7.17,-71.95 -6.84,-71.60 -6.49,-71.26 -6.12,-70.94 -5.73,-70.63 -5.31,-70.33 -4.88,-70.04 -4.41,-69.77 -3.93,-69.51 -3.43,-69.26 -2.90,-69.03 -2.35,-68.81 -1.77,-68.60 -1.18,-68.40 -0.56,-68.22 0.08,-68.05"/>
    </edge>
    <edge id=":30_1" function="internal">
        <lane id=":30_1_0" index="0" disallow="bus truck rail_fast" speed="11.58" length="11.05" width="3.13" shape="-11.30,-71.88 -10.93,-71.17 -10.59,-70.53 -10.26,-69.96 -9.94,-69.46 -9.63,-69.00 -9.31,-68.60 -8.99,-68.25 -8.66,-67.93 -8.31,-67.64 -7.95,-67.38 -7.56,-67.14 -7.14,-66.91 -6.69,-66.69 -6.21,-66.47 -5.68,-66.25 -5.10,-66.02 -4.47,-65.78 -3.79,-65.51 -3.04,-65.21"/>
    </edge>
    <edge id=":30_2" function="internal">
        <lane id=":30_2_0" index="0" disallow="rail_fast" speed="36.11" length="10.45" width="3.12" shape="-11.30,-71.88 -6.73,-62.33"/>
        <lane id=":30_2_1" index="1" disallow="rail_fast" speed="36.11" length="10.45" width="3.06" shape="-14.03,-70.45 -9.53,-61.01"/>
        <lane id=":30_2_2" index="2" disallow="rail_fast" speed="36.11" length="10.45" width="2.98" shape="-16.72,-69.03 -12.26,-59.72"/>
    </edge>
    <edge id=":30_5" function="internal">
        <lane id=":30_5_0" index="0" disallow="bus truck rail_fast" speed="36.11" length="10.20" width="2.87" shape="-19.41,-67.62 -19.07,-66.93 -18.77,-66.31 -18.49,-65.75 -18.23,-65.24 -18.00,-64.78 -17.79,-64.35 -17.59,-63.94 -17.41,-63.56 -17.24,-63.18 -17.07,-62.81 -16.91,-62.44 -16.74,-62.05 -16.58,-61.64 -16.40,-61.20 -16.22,-60.72 -16.03,-60.19 -15.82,-59.62 -15.60,-58.98 -15.35,-58.27"/>
    </edge>
    <edge id=":31_0" function="internal">
        <lane id=":31_0_0" index="0" disallow="rail_fast" speed="36.11" length="3.22" width="3.12" shape="-5.85,-60.47 -4.47,-57.57"/>
        <lane id=":31_0_1" index="1" disallow="rail_fast" speed="36.11" length="3.22" width="3.06" shape="-8.61,-59.07 -7.22,-56.16"/>
        <lane id=":31_0_2" index="2" disallow="rail_fast" speed="36.11" length="3.22" width="2.95" shape="-11.30,-57.70 -9.91,-54.79"/>
    </edge>
    <edge id=":32_0" function="internal">
        <lane id=":32_0_0" index="0" disallow="rail_fast" speed="36.11" length="2.64" width="3.14" shape="1.59,-44.98 2.73,-42.59"/>
        <lane id=":32_0_1" index="1" disallow="rail_fast" speed="36.11" length="2.64" width="3.10" shape="-1.22,-43.62 -0.08,-41.23"/>
        <lane id=":32_0_2" index="2" disallow="rail_fast" speed="36.11" length="2.64" width="2.93" shape="-3.94,-42.29 -2.81,-39.92"/>
    </edge>
    <edge id=":34_0" function="internal">
        <lane id=":34_0_0" index="0" disallow="rail_fast" speed="36.11" length="3.05" width="2.78" shape="14.27,28.71 12.91,25.98"/>
        <lane id=":34_0_1" index="1" disallow="rail_fast" speed="36.11" length="3.05" width="3.00" shape="16.87,27.45 15.51,24.72"/>
        <lane id=":34_0_2" index="2" disallow="bus rail_fast" speed="36.11" length="3.05" width="3.02" shape="19.59,26.13 18.25,23.39"/>
        <lane id=":34_0_3" index="3" disallow="bus rail_fast" speed="36.11" length="3.05" width="2.96" shape="22.31,24.81 20.96,22.07"/>
        <lane id=":34_0_4" index="4" disallow="rail_fast" speed="36.11" length="3.05" width="3.03" shape="25.03,23.49 23.67,20.76"/>
    </edge>
    <edge id=":35_0" function="internal">
        <lane id=":35_0_0" index="0" disallow="rail_fast" speed="21.96" length="7.43" width="2.94" shape="4.91,10.11 4.65,9.61 4.42,9.17 4.19,8.77 3.99,8.42 3.78,8.10 3.59,7.81 3.40,7.54 3.20,7.30 3.01,7.07 2.80,6.85 2.59,6.63 2.36,6.42 2.12,6.19 1.86,5.95 1.57,5.70 1.26,5.42 0.92,5.11 0.54,4.77 0.13,4.39"/>
        <lane id=":35_0_1" index="1" disallow="rail_fast" speed="36.11" length="7.43" width="2.94" shape="4.91,10.11 1.60,3.55"/>
        <lane id=":35_0_2" index="2" disallow="rail_fast" speed="36.11" length="7.43" width="3.05" shape="7.57,8.76 4.24,2.06"/>
        <lane id=":35_0_3" index="3" disallow="rail_fast" speed="36.11" length="7.43" width="3.03" shape="10.31,7.39 6.90,0.55"/>
        <lane id=":35_0_4" index="4" disallow="rail_fast" speed="36.11" length="7.43" width="3.05" shape="13.03,6.01 9.56,-0.96"/>
        <lane id=":35_0_5" index="5" disallow="rail_fast" speed="36.11" length="7.43" width="3.12" shape="15.78,4.62 12.79,-1.44"/>
    </edge>
    <edge id=":36_0" function="internal">
        <lane id=":36_0_0" index="0" disallow="rail_fast" speed="15.71" length="3.50" width="3.22" shape="-0.25,4.03 -0.46,3.84 -0.65,3.68 -0.83,3.54 -1.00,3.42 -1.16,3.31 -1.31,3.21 -1.45,3.12 -1.59,3.04 -1.72,2.96 -1.85,2.87 -1.97,2.78 -2.09,2.69 -2.21,2.58 -2.33,2.46 -2.44,2.32 -2.56,2.16 -2.68,1.97 -2.81,1.76 -2.94,1.52"/>
        <lane id=":36_0_1" index="1" disallow="rail_fast" speed="36.11" length="3.50" width="2.87" shape="1.41,3.17 -0.11,0.16"/>
        <lane id=":36_0_2" index="2" disallow="rail_fast" speed="36.11" length="3.50" width="3.00" shape="4.11,1.78 2.64,-1.18"/>
        <lane id=":36_0_3" index="3" disallow="rail_fast" speed="36.11" length="3.50" width="3.02" shape="6.82,0.39 5.37,-2.52"/>
        <lane id=":36_0_4" index="4" disallow="rail_fast" speed="36.11" length="3.50" width="3.02" shape="9.51,-1.05 8.09,-3.90"/>
        <lane id=":36_0_5" index="5" disallow="rail_fast" speed="36.11" length="3.50" width="3.03" shape="12.70,-1.62 10.88,-5.31"/>
    </edge>
    <edge id=":37_0" function="internal">
        <lane id=":37_0_0" index="0" disallow="bus truck rail_fast" speed="36.11" length="4.73" width="3.84" shape="-12.48,-17.44 -12.64,-17.76 -12.79,-18.05 -12.91,-18.30 -13.03,-18.54 -13.13,-18.76 -13.23,-18.96 -13.32,-19.14 -13.41,-19.32 -13.49,-19.49 -13.58,-19.65 -13.68,-19.82 -13.78,-19.98 -13.89,-20.16 -14.01,-20.34 -14.15,-20.53 -14.31,-20.74 -14.48,-20.97 -14.68,-21.22 -14.90,-21.49"/>
    </edge>
    <edge id=":37_1" function="internal">
        <lane id=":37_1_0" index="0" disallow="rail_fast" speed="36.11" length="5.10" width="2.87" shape="-9.52,-18.96 -11.82,-23.54"/>
        <lane id=":37_1_1" index="1" disallow="rail_fast" speed="36.11" length="5.10" width="3.02" shape="-6.87,-20.31 -9.16,-24.86"/>
        <lane id=":37_1_2" index="2" disallow="rail_fast" speed="36.11" length="5.10" width="3.12" shape="-4.14,-21.70 -6.39,-26.24"/>
    </edge>
    <edge id=":37_4" function="internal">
        <lane id=":37_4_0" index="0" disallow="bus truck rail_fast" speed="36.11" length="5.03" width="2.93" shape="-1.39,-23.10 -3.64,-27.60"/>
    </edge>
    <edge id=":37_5" function="internal">
        <lane id=":37_5_0" index="0" disallow="bus truck rail_fast" speed="36.11" length="4.99" width="3.03" shape="1.32,-24.49 -0.91,-28.95"/>
    </edge>
    <edge id=":38_0" function="internal">
        <lane id=":38_0_0" index="0" disallow="rail_fast" speed="36.11" length="3.02" width="3.06" shape="-16.40,-32.79 -17.75,-35.50"/>
        <lane id=":38_0_1" index="1" disallow="rail_fast" speed="36.11" length="3.02" width="2.99" shape="-13.69,-34.12 -15.01,-36.84"/>
        <lane id=":38_0_2" index="2" disallow="rail_fast" speed="36.11" length="3.02" width="3.06" shape="-10.93,-35.48 -12.26,-38.19"/>
    </edge>
    <edge id=":39_0" function="internal">
        <lane id=":39_0_0" index="0" disallow="rail_fast" speed="36.11" length="1.22" width="3.29" shape="-23.72,-47.55 -23.18,-46.46"/>
        <lane id=":39_0_1" index="1" disallow="rail_fast" speed="36.11" length="1.22" width="2.97" shape="-20.94,-48.98 -20.41,-47.89"/>
        <lane id=":39_0_2" index="2" disallow="rail_fast" speed="36.11" length="1.22" width="3.01" shape="-18.25,-50.37 -17.71,-49.27"/>
    </edge>
    <edge id=":5_0" function="internal">
        <lane id=":5_0_0" index="0" disallow="bus truck rail_fast" speed="8.72" length="16.70" width="3.23" shape="-36.05,-41.07 -34.81,-41.71 -33.66,-42.34 -32.58,-42.97 -31.59,-43.61 -30.68,-44.24 -29.85,-44.86 -29.10,-45.49 -28.44,-46.12 -27.86,-46.74 -27.36,-47.36 -26.95,-47.98 -26.61,-48.60 -26.36,-49.22 -26.19,-49.83 -26.10,-50.45 -26.10,-51.06 -26.18,-51.67 -26.34,-52.28 -26.58,-52.88"/>
    </edge>
    <edge id=":5_1" function="internal">
        <lane id=":5_1_0" index="0" disallow="rail_fast" speed="36.11" length="13.86" width="3.23" shape="-36.05,-41.07 -23.76,-47.42"/>
        <lane id=":5_1_1" index="1" disallow="rail_fast" speed="36.11" length="13.86" width="3.03" shape="-34.66,-38.27 -22.29,-44.55"/>
    </edge>
    <edge id=":5_3" function="internal">
        <lane id=":5_3_0" index="0" disallow="bus truck rail_fast" speed="36.11" length="1.56" width="2.92" shape="-33.31,-35.53 -34.71,-34.85"/>
    </edge>
    <edge id=":6_0" function="internal">
        <lane id=":6_0_0" index="0" disallow="bus truck rail_fast" speed="9.12" length="13.80" width="3.05" shape="7.66,-43.63 7.29,-43.20 6.97,-42.74 6.69,-42.26 6.46,-41.75 6.28,-41.21 6.14,-40.64 6.04,-40.04 5.99,-39.42 5.99,-38.76 6.03,-38.08 6.12,-37.37 6.25,-36.63 6.43,-35.87 6.66,-35.07 6.93,-34.25 7.24,-33.40 7.60,-32.52 8.01,-31.61 8.46,-30.68"/>
    </edge>
    <edge id=":6_1" function="internal">
        <lane id=":6_1_0" index="0" disallow="rail_fast" speed="36.11" length="13.06" width="3.05" shape="2.82,-42.41 8.46,-30.68"/>
        <lane id=":6_1_1" index="1" disallow="rail_fast" speed="36.11" length="13.06" width="2.91" shape="0.00,-41.05 5.65,-29.27"/>
        <lane id=":6_1_2" index="2" disallow="rail_fast" speed="36.11" length="13.06" width="2.89" shape="-2.72,-39.74 2.94,-27.91"/>
    </edge>
    <edge id=":6_4" function="internal">
        <lane id=":6_4_0" index="0" disallow="bus truck rail_fast" speed="36.11" length="13.55" width="2.89" shape="-3.58,-39.79 2.94,-27.91"/>
    </edge>
    <edge id=":7_0" function="internal">
        <lane id=":7_0_0" index="0" disallow="rail_fast" speed="36.11" length="0.24" width="3.05" shape="18.80,-9.42 18.90,-9.21"/>
        <lane id=":7_0_1" index="1" disallow="rail_fast" speed="36.11" length="0.24" width="2.91" shape="16.13,-8.09 16.24,-7.87"/>
        <lane id=":7_0_2" index="2" disallow="rail_fast" speed="36.11" length="0.24" width="2.89" shape="13.53,-6.79 13.64,-6.56"/>
    </edge>
    <edge id=":8_0" function="internal">
        <lane id=":8_0_0" index="0" disallow="rail_fast" speed="36.11" length="3.05" width="3.03" shape="22.01,-3.14 23.39,-0.41"/>
        <lane id=":8_0_1" index="1" disallow="rail_fast" speed="36.11" length="3.05" width="3.00" shape="19.29,-1.78 20.66,0.95"/>
        <lane id=":8_0_2" index="2" disallow="rail_fast" speed="36.11" length="3.05" width="2.94" shape="16.65,-0.46 17.99,2.27"/>
    </edge>
    <edge id=":9_0" function="internal">
        <lane id=":9_0_0" index="0" disallow="bus truck rail_fast" speed="10.11" length="13.46" width="3.16" shape="31.64,16.12 32.08,16.96 32.53,17.76 32.98,18.52 33.44,19.23 33.90,19.90 34.38,20.53 34.86,21.11 35.35,21.65 35.84,22.15 36.34,22.61 36.85,23.02 37.37,23.39 37.89,23.72 38.43,24.00 38.96,24.24 39.51,24.44 40.06,24.60 40.62,24.71 41.19,24.79"/>
    </edge>
    <edge id=":9_1" function="internal">
        <lane id=":9_1_0" index="0" disallow="rail_fast" speed="36.11" length="13.11" width="3.16" shape="31.64,16.12 37.45,27.89"/>
        <lane id=":9_1_1" index="1" disallow="bus rail_fast" speed="36.11" length="13.11" width="2.93" shape="28.86,17.47 34.69,29.22"/>
        <lane id=":9_1_2" index="2" disallow="rail_fast" speed="36.11" length="13.11" width="3.07" shape="26.12,18.81 31.95,30.55"/>
    </edge>

    <edge id="3426" from="34" to="35" priority="1" spreadType="center" length="21.90">
        <lane id="3426_0" index="0" disallow="rail_fast" speed="36.11" length="21.90" width="2.78" customShape="1" shape="12.91,25.98 8.43,17.09 4.91,10.11"/>
        <lane id="3426_1" index="1" disallow="rail_fast" speed="36.11" length="21.90" width="3.00" customShape="1" shape="15.51,24.72 11.09,15.83 7.57,8.76"/>
        <lane id="3426_2" index="2" disallow="rail_fast" speed="36.11" length="21.90" width="3.02" customShape="1" shape="18.25,23.39 13.77,14.40 10.31,7.39"/>
        <lane id="3426_3" index="3" disallow="rail_fast" speed="36.11" length="21.90" width="2.96" customShape="1" shape="20.96,22.07 16.46,12.94 13.03,6.01"/>
        <lane id="3426_4" index="4" disallow="rail_fast" speed="36.11" length="21.90" width="3.03" customShape="1" shape="23.67,20.76 19.18,11.56 15.78,4.62"/>
    </edge>
    <edge id="3438" from="35" to="36" priority="1" spreadType="center" length="8.44">
        <lane id="3438_0" index="0" disallow="rail_fast" speed="36.11" length="8.44" width="2.94" customShape="1" shape="0.13,4.39 -0.25,4.03"/>
        <lane id="3438_1" index="1" disallow="rail_fast" speed="36.11" length="8.44" width="2.94" customShape="1" shape="1.60,3.55 1.41,3.17"/>
        <lane id="3438_2" index="2" disallow="rail_fast" speed="36.11" length="8.44" width="3.05" customShape="1" shape="4.24,2.06 4.11,1.78"/>
        <lane id="3438_3" index="3" disallow="rail_fast" speed="36.11" length="8.44" width="3.03" customShape="1" shape="6.90,0.55 6.82,0.39"/>
        <lane id="3438_4" index="4" disallow="rail_fast" speed="36.11" length="8.44" width="3.05" customShape="1" shape="9.56,-0.96 9.51,-1.05"/>
        <lane id="3438_5" index="5" disallow="rail_fast" speed="36.11" length="8.44" width="3.12" customShape="1" shape="12.79,-1.44 12.70,-1.62"/>
    </edge>
    <edge id="3450" from="36" to="37" priority="1" spreadType="center" length="24.49">
        <lane id="3450_0" index="0" disallow="rail_fast" speed="36.11" length="24.49" width="3.22" customShape="1" shape="-2.94,1.52 -6.12,-4.75 -9.91,-12.43 -12.48,-17.44"/>
        <lane id="3450_1" index="1" disallow="rail_fast" speed="36.11" length="24.49" width="2.87" customShape="1" shape="-0.11,0.16 -3.12,-5.90 -6.94,-13.84 -9.52,-18.96"/>
        <lane id="3450_2" index="2" disallow="rail_fast" speed="36.11" length="24.49" width="3.00" customShape="1" shape="2.64,-1.18 -0.39,-7.23 -4.24,-15.18 -6.87,-20.31"/>
        <lane id="3450_3" index="3" disallow="rail_fast" speed="36.11" length="24.49" width="3.02" customShape="1" shape="5.37,-2.52 2.28,-8.68 -1.60,-16.62 -4.14,-21.70"/>
        <lane id="3450_4" index="4" disallow="rail_fast" speed="36.11" length="24.49" width="3.02" customShape="1" shape="8.09,-3.90 4.97,-10.13 1.08,-18.08 -1.39,-23.10"/>
        <lane id="3450_5" index="5" disallow="rail_fast" speed="36.11" length="24.49" width="3.03" customShape="1" shape="10.88,-5.31 7.66,-11.64 3.78,-19.59 1.32,-24.49"/>
    </edge>
    <edge id="3456" from="6" to="7" priority="1" spreadType="center" length="24.71">
        <lane id="3456_0" index="0" disallow="rail_fast" speed="36.11" length="24.71" width="3.05" customShape="1" shape="8.46,-30.68 11.63,-24.34 15.48,-16.42 18.80,-9.42"/>
        <lane id="3456_1" index="1" disallow="rail_fast" speed="36.11" length="24.71" width="2.91" customShape="1" shape="5.65,-29.27 9.06,-22.57 12.74,-15.01 16.13,-8.09"/>
        <lane id="3456_2" index="2" disallow="rail_fast" speed="36.11" length="24.71" width="2.89" customShape="1" shape="2.94,-27.91 6.43,-21.01 10.22,-13.31 13.53,-6.79"/>
    </edge>
    <edge id="3462" from="7" to="8" priority="1" spreadType="center" length="8.47">
        <lane id="3462_0" index="0" disallow="rail_fast" speed="36.11" length="8.47" width="3.05" customShape="1" shape="18.90,-9.21 22.01,-3.14"/>
        <lane id="3462_1" index="1" disallow="rail_fast" speed="36.11" length="8.47" width="2.91" customShape="1" shape="16.24,-7.87 19.29,-1.78"/>
        <lane id="3462_2" index="2" disallow="rail_fast" speed="36.11" length="8.47" width="2.89" customShape="1" shape="13.64,-6.56 16.65,-0.46"/>
    </edge>
    <edge id="3468" from="8" to="9" priority="1" spreadType="center" length="22.24">
        <lane id="3468_0" index="0" disallow="rail_fast" speed="36.11" length="22.24" width="3.03" customShape="1" shape="23.39,-0.41 27.32,7.54 31.64,16.12"/>
        <lane id="3468_1" index="1" disallow="rail_fast" speed="36.11" length="22.24" width="3.00" customShape="1" shape="20.66,0.95 24.65,8.95 28.86,17.47"/>
        <lane id="3468_2" index="2" disallow="rail_fast" speed="36.11" length="22.24" width="2.94" customShape="1" shape="17.99,2.27 21.95,10.33 26.12,18.81"/>
    </edge>
    <edge id="3498" from="1" to="2" priority="1" spreadType="center" length="9.59">
        <lane id="3498_0" index="0" disallow="rail_fast" speed="36.11" length="9.59" width="4.77" customShape="1" shape="62.65,29.96 53.47,30.27"/>
    </edge>
    <edge id="3500" from="25" to="26" priority="1" spreadType="center" length="9.59">
        <lane id="3500_0" index="0" disallow="rail_fast" speed="36.11" length="9.59" width="5.36" customShape="1" shape="54.30,25.17 62.44,24.90"/>
    </edge>
    <edge id="3509" from="4" to="5" priority="1" spreadType="center" length="15.63">
        <lane id="3509_0" index="0" disallow="rail_fast" speed="36.11" length="15.63" width="3.23" customShape="1" shape="-48.14,-35.06 -43.75,-37.24 -36.05,-41.07"/>
        <lane id="3509_1" index="1" disallow="rail_fast" speed="36.11" length="15.63" width="3.02" customShape="1" shape="-46.75,-32.26 -42.32,-34.46 -34.66,-38.27"/>
        <lane id="3509_2" index="2" disallow="rail_fast" speed="36.11" length="15.63" width="3.06" customShape="1" shape="-45.40,-29.53 -40.91,-31.76 -33.31,-35.53"/>
    </edge>
    <edge id="3517" from="23" to="24" priority="1" spreadType="center" length="14.50">
        <lane id="3517_0" index="0" disallow="rail_fast" speed="36.11" length="14.50" width="5.13" acceleration="1" customShape="1" shape="-29.17,-24.74 -36.51,-21.21 -40.13,-19.23"/>
        <lane id="3517_1" index="1" disallow="rail_fast" speed="36.11" length="14.50" width="3.11" customShape="1" shape="-30.96,-29.05 -38.40,-25.06 -42.10,-22.85"/>