<routes>
	<vehicle depart="0.1" departLane="1" departPos="15.461930832132214" departSpeed="6.1021" id="2567" type="passenger">
		<route edges="3664 3664 3525"/>
	</vehicle>
	<vehicle depart="0.1" departLane="0" departPos="0" departSpeed="6.2454" id="2585" type="passenger">
		<route edges="3664 3664 3664 3525"/>
	</vehicle>
	<vehicle depart="0.1" departLane="4" departPos="0" departSpeed="3.9563" id="2653" type="passenger">
		<route edges="3450 3664 3664 3664 3525"/>
	</vehicle>
	<vehicle depart="0.1" departLane="4" departPos="20.555886571814174" departSpeed="4.572" id="2657" type="passenger">
		<route edges="3450 3664 3664 3664 3525"/>
	</vehicle>
	<vehicle depart="0.1" departLane="1" departPos="0" departSpeed="0.0" id="2664" type="passenger">
		<route edges="3632 3652 3616 3456 3462 3468 3713"/>
	</vehicle>
	<vehicle depart="0.1" departLane="4" departPos="0" departSpeed="2.2555" id="2667" type="passenger">
		<route edges="3438 3450 3664 3664 3525"/>
	</vehicle>
	<vehicle depart="0.1" departLane="1" departPos="28.479300394843776" departSpeed="6.8214" id="2671" type="passenger">
		<route edges="3664 3525"/>
	</vehicle>
	<vehicle depart="0.1" departLane="3" departPos="18.62639225606477" departSpeed="0.0" id="2675" type="passenger">
		<route edges="3426 3438 3450 3664 3525"/>
	</vehicle>
	<vehicle depart="0.1" departLane="3" departPos="12.46056232018933" departSpeed="0.0" id="2680" type="passenger">
		<route edges="3426 3438 3450 3664 3525"/>
	</vehicle>
	<vehicle depart="0.1" departLane="1" departPos="0" departSpeed="6.2301" id="2704" type="passenger">
		<route edges="3664 3672 3662 3662 3668 3652 3664 3676 3525"/>
	</vehicle>
	<vehicle depart="0.1" departLane="0" departPos="66.24609280709885" departSpeed="9.4244" id="2706" type="passenger">
		<route edges="3542"/>
	</vehicle>
	<vehicle depart="0.1" departLane="3" departPos="29.455265030351704" departSpeed="0.0" id="2707" type="passenger">
		<route edges="3705 3426 3438 3450 3664 3525"/>
	</vehicle>
	<vehicle depart="0.1" departLane="3" departPos="0" departSpeed="0.0" id="2709" type="passenger">
		<route edges="3426 3438 3450 3664 3525"/>
	</vehicle>
	<vehicle depart="0.1" departLane="0" departPos="44.755425415165284" departSpeed="9.8176" id="2710" type="passenger">
		<route edges="3542"/>
	</vehicle>
	<vehicle depart="0.1" departLane="2" departPos="8.128375458406992" departSpeed="4.8402" id="2712" type="passenger">
		<route edges="3610 3646 3626 3542"/>
	</vehicle>
	<vehicle depart="0.1" departLane="5" departPos="21.015845409804278" departSpeed="6.3703" id="2713" type="passenger">
		<route edges="3450 3664 3672 3662 3662 3668 3652 3668 3664 3525"/>
	</vehicle>
	<vehicle depart="0.1" departLane="3" departPos="18.059676506469252" departSpeed="0.0" id="2715" type="passenger">
		<route edges="3705 3426 3438 3450 3664 3525"/>
	</vehicle>
	<vehicle depart="0.1" departLane="3" departPos="0" departSpeed="0.09144" id="2716" type="passenger">
		<route edges="3705 3426 3438 3450 3664 3525"/>
	</vehicle>
	<vehicle depart="0.1" departLane="2" departPos="0" departSpeed="4.0356" id="2718" type="passenger">
		<route edges="3610 3646 3626 3542"/>
	</vehicle>
	<vehicle depart="0.1" departLane="1" departPos="0" departSpeed="10.7107" id="2722" type="passenger">
		<route edges="3626 3542 3542"/>
	</vehicle>
	<vehicle depart="0.1" departLane="0" departPos="10.650474892409248" departSpeed="8.9733" id="2725" type="passenger">
		<route edges="3646 3626 3600 3626 3542"/>
	</vehicle>
	<vehicle depart="0.1" departLane="3" departPos="15.912433034613766" departSpeed="4.7" id="2728" type="passenger">
		<route edges="3450 3610 3646 3626 3542"/>
	</vehicle>
	<vehicle depart="0.1" departLane="1" departPos="0" departSpeed="4.0112" id="2730" type="passenger">
		<route edges="3610 3646 3626 3542"/>
	</vehicle>
	<vehicle depart="0.1" departLane="5" departPos="0" departSpeed="5.712" id="2731" type="passenger">
		<route edges="3450 3664 3672 3662 3668 3664 3525"/>
	</vehicle>
	<vehicle depart="0.1" departLane="3" departPos="0" departSpeed="1.6307" id="2732" type="passenger">
		<route edges="3450 3610 3646 3626 3542"/>
	</vehicle>
	<vehicle depart="0.1" departLane="0" departPos="7.7596449534387375" departSpeed="7.9065" id="2733" type="passenger">
		<route edges="3610 3646 3626 3600 3626 3542"/>
	</vehicle>
	<vehicle depart="0.1" departLane="2" departPos="0" departSpeed="4.0752" id="2735" type="passenger">
		<route edges="3450 3610 3646 3626 3542"/>
	</vehicle>
	<vehicle depart="0.1" departLane="1" departPos="0" departSpeed="4.5994" id="2737" type="passenger">
		<route edges="3450 3610 3646 3626 3600 3542"/>
	</vehicle>
	<vehicle depart="0.1" departLane="4" departPos="19.107757374381222" departSpeed="0.35662" id="2740" type="passenger">
		<route edges="3426 3438 3450 3664 3672 3662 3662 3668 3542"/>
	</vehicle>
	<vehicle depart="0.1" departLane="5" departPos="5.363388922192664" departSpeed="3.4381" id="2742" type="passenger">
		<route edges="3438 3450 3664 3672 3662 3662 3668 3664 3525"/>
	</vehicle>
	<vehicle depart="0.1" departLane="3" departPos="0" departSpeed="0.01524" id="2749" type="passenger">
		<route edges="3705 3426 3438 3450 3664 3525"/>
	</vehicle>
	<vehicle depart="0.1" departLane="4" departPos="12.17063865550257" departSpeed="0.067056" id="2751" type="passenger">
		<route edges="3426 3438 3450 3664 3525"/>
	</vehicle>
	<vehicle depart="0.1" departLane="1" departPos="0" departSpeed="0.1463" id="2753" type="passenger">
		<route edges="3438 3450 3610 3646 3626 3542"/>
	</vehicle>
	<vehicle depart="0.1" departLane="2" departPos="0" departSpeed="0.28042" id="2754" type="passenger">
		<route edges="3438 3450 3610 3646 3626 3542"/>
	</vehicle>
	<vehicle depart="0.1" departLane="1" departPos="0" departSpeed="0.024384" id="2755" type="passenger">
		<route edges="3559 3568 3680 3525"/>
	</vehicle>
	<vehicle depart="0.1" departLane="3" departPos="0" departSpeed="0.71018" id="2758" type="passenger">
		<route edges="3438 3450 3610 3646 3626 3542"/>
	</vehicle>
	<vehicle depart="0.1" departLane="1" departPos="47.08668512312134" departSpeed="0.039624" id="2759" type="passenger">
		<route edges="3568 3632 3652 3616 3456 3462 3468 3713"/>
	</vehicle>
	<vehicle depart="0.1" departLane="2" departPos="47.116916666997895" departSpeed="0.0" id="2761" type="passenger">
		<route edges="3568 3632 3652 3616 3456 3462 3468 3713"/>
	</vehicle>
	<vehicle depart="0.1" departLane="0" departPos="12.942051043104307" departSpeed="6.2972" id="2762" type="passenger">
		<route edges="3680 3525"/>
	</vehicle>
	<vehicle depart="0.1" departLane="1" departPos="47.08668512312134" departSpeed="0.0" id="2763" type="passenger">
		<route edges="3568 3680 3525"/>
	</vehicle>
	<vehicle depart="0.1" departLane="2" departPos="33.220107803639166" departSpeed="0.0" id="2764" type="passenger">
		<route edges="3568 3632 3652 3616 3456 3462 3468 3713"/>
	</vehicle>
	<vehicle depart="0.1" departLane="2" departPos="28.07836928489288" departSpeed="0.0" id="2765" type="passenger">
		<route edges="3568 3632 3652 3616 3456 3462 3468 3713"/>
	</vehicle>
	<vehicle depart="0.1" departLane="2" departPos="0" departSpeed="1.585" id="2766" type="passenger">
		<route edges="3450 3610 3646 3626 3542"/>
	</vehicle>
	<vehicle depart="0.1" departLane="2" departPos="0" departSpeed="0.0" id="2768" type="passenger">
		<route edges="3632 3652 3616 3456 3462 3468 3713"/>
	</vehicle>
	<vehicle depart="0.1" departLane="1" departPos="30.228676993670295" departSpeed="0.0" id="2773" type="passenger">
		<route edges="3568 3680 3525"/>
	</vehicle>
	<vehicle depart="0.1" departLane="3" departPos="47.161908523916466" departSpeed="0.0" id="2776" type="passenger">
		<route edges="3568 3632 3652 3616 3456 3462 3468 3713"/>
	</vehicle>
	<vehicle depart="0.1" departLane="3" departPos="32.82470115265474" departSpeed="0.021336" id="2783" type="passenger">
		<route edges="3568 3632 3652 3616 3456 3462 3468 3713"/>
	</vehicle>
	<vehicle depart="0.1" departLane="1" departPos="22.5221933364882" departSpeed="0.0" id="2784" type="passenger">
		<route edges="3568 3680 3525"/>
	</vehicle>
	<vehicle depart="0.1" departLane="1" departPos="0" departSpeed="0.0" id="2785" type="passenger">
		<route edges="3568 3680 3525"/>
	</vehicle>
	<vehicle depart="0.1" departLane="2" departPos="21.962292081742252" departSpeed="0.0" id="2786" type="passenger">
		<route edges="3568 3632 3652 3616 3456 3462 3468 3713"/>
	</vehicle>
	<vehicle depart="0.1" departLane="1" departPos="0" departSpeed="0.0" id="2787" type="passenger">
		<route edges="3568 3680 3525"/>
	</vehicle>
	<vehicle depart="0.1" departLane="2" departPos="0" departSpeed="0.0" id="2788" type="passenger">
		<route edges="3568 3632 3652 3616 3456 3462 3468 3713"/>
	</vehicle>
	<vehicle depart="0.1" departLane="1" departPos="0" departSpeed="0.0" id="2792" type="passenger">
		<route edges="3568 3680 3525"/>
	</vehicle>
	<vehicle depart="0.1" departLane="2" departPos="0" departSpeed="0.0" id="2794" type="passenger">
		<route edges="3568 3632 3652 3616 3456 3462 3468 3713"/>
	</vehicle>
	<vehicle depart="0.1" departLane="1" departPos="11.497011012838703" departSpeed="0.027432" id="2797" type="passenger">
		<route edges="3559 3568 3680 3525"/>
	</vehicle>
	<vehicle depart="0.1" departLane="3" departPos="25.56102753927621" departSpeed="0.0" id="2798" type="passenger">
		<route edges="3568 3632 3652 3616 3456 3462 3468 3713"/>
	</vehicle>
	<vehicle depart="0.1" departLane="2" departPos="16.502991451771862" departSpeed="0.0" id="2802" type="passenger">
		<route edges="3559 3568 3632 3652 3616 3456 3462 3468 3713"/>
	</vehicle>
	<vehicle depart="0.1" departLane="0" departPos="0" departSpeed="9.8969" id="2804" type="passenger">
		<route edges="3468 3713"/>
	</vehicle>
	<vehicle depart="0.1" departLane="1" departPos="6.630002608219697" departSpeed="0.0" id="2808" type="passenger">
		<route edges="3536 3620 3662 3640 3517"/>
	</vehicle>
	<vehicle depart="0.1" departLane="1" departPos="0" departSpeed="0.0" id="2810" type="passenger">
		<route edges="3620 3662 3640 3517"/>
	</vehicle>
	<vehicle depart="0.1" departLane="3" departPos="0" departSpeed="0.01524" id="2813" type="passenger">
		<route edges="3568 3632 3652 3616 3456 3462 3468 3713"/>
	</vehicle>
	<vehicle depart="0.1" departLane="0" departPos="47.20091018876078" departSpeed="4.0477" id="2814" type="passenger">
		<route edges="3568 3680 3525"/>
	</vehicle>
	<vehicle depart="0.1" departLane="0" departPos="0" departSpeed="8.4338" id="2816" type="passenger">
		<route edges="3568 3680 3525"/>
	</vehicle>
	<vehicle depart="0.1" departLane="2" departPos="9.96007256372979" departSpeed="0.0" id="2817" type="passenger">
		<route edges="3559 3568 3632 3652 3616 3456 3462 3468 3713"/>
	</vehicle>
	<vehicle depart="0.1" departLane="0" departPos="0" departSpeed="7.3" id="2818" type="passenger">
		<route edges="3568 3680 3525"/>
	</vehicle>
	<vehicle depart="0.1" departLane="0" departPos="0" departSpeed="7.62" id="2819" type="passenger">
		<route edges="3559 3568 3680 3525"/>
	</vehicle>
	<vehicle depart="0.1" departLane="0" departPos="0" departSpeed="7.7572" id="2822" type="passenger">
		<route edges="3555 3559 3568 3680 3525"/>
	</vehicle>
	<vehicle depart="0.1" departLane="0" departPos="0" departSpeed="2.7981" id="2824" type="passenger">
		<route edges="3600 3636 3600 3542"/>
	</vehicle>
</routes>
