<routes>
	<vehicle depart="0.1" departLane="0" departPos="31.409680034138297" departSpeed="17.493287" id="3109" type="passenger">
		<route edges=":123_5 3343 3340"/>
	</vehicle>
	<vehicle depart="0.1" departLane="0" departPos="20.023701069336273" departSpeed="10.656628" id="3119" type="truck">
		<route edges="3344 3347"/>
	</vehicle>
</routes>
