<routes>
	<vehicle depart="0.1" departLane="0" departPos="7.547428814646585" departSpeed="0.0" id="30" type="passenger">
		<route edges="54508 54541 54494 54520 54490"/>
	</vehicle>
	<vehicle depart="0.1" departLane="0" departPos="0" departSpeed="0.4809" id="31" type="passenger">
		<route edges="54514 54528 54462 54574 54457"/>
	</vehicle>
	<vehicle depart="0.1" departLane="0" departPos="145.64330805141552" departSpeed="0.0" id="32" type="passenger">
		<route edges="54491 54595 54498 54535 54497 54518 54458"/>
	</vehicle>
	<vehicle depart="0.1" departLane="0" departPos="0" departSpeed="6.8766" id="33" type="passenger">
		<route edges="54485 54580 54459 54569 54496 54530 54499 54555 54495"/>
	</vehicle>
	<vehicle depart="0.1" departLane="0" departPos="0" departSpeed="7.1207" id="34" type="passenger">
		<route edges="54557 54454 54559 54459 54569 54496 54530 54499"/>
	</vehicle>
	<vehicle depart="0.1" departLane="0" departPos="65.87824438006851" departSpeed="9.0368" id="35" type="passenger">
		<route edges="54499 54555 54495 54539 54509 54533 54463 54581 54485 54580 54459"/>
	</vehicle>
	<vehicle depart="0.1" departLane="0" departPos="0" departSpeed="1.8619" id="36" type="passenger">
		<route edges="54514 54528 54462 54574 54457"/>
	</vehicle>
	<vehicle depart="0.1" departLane="0" departPos="9.180198253268172" departSpeed="7.8911" id="37" type="passenger">
		<route edges="54562 54484 54586 54515 54543 54548 54470"/>
	</vehicle>
	<vehicle depart="0.1" departLane="0" departPos="13.162270263912497" departSpeed="9.2574" id="38" type="passenger">
		<route edges="54519 54498 54535 54497 54518 54458 54568 54484"/>
	</vehicle>
	<vehicle depart="0.1" departLane="0" departPos="0" departSpeed="8.1352" id="39" type="passenger">
		<route edges="54607 54478 54561 54496 54530 54499 54555 54495 54539 54509 54546 54457"/>
	</vehicle>
	<vehicle depart="0.1" departLane="0" departPos="207.3811744466849" departSpeed="7.0387" id="310" type="passenger">
		<route edges="54488 54604 54476 54607 54478 54561 54496 54530 54499 54555 54495 54539 54509 54546 54457"/>
	</vehicle>
	<vehicle depart="0.1" departLane="0" departPos="50.105453219560495" departSpeed="7.6614" id="311" type="passenger">
		<route edges="54494 54519 54498 54535 54497 54518 54458 54568 54484"/>
	</vehicle>
	<vehicle depart="0.1" departLane="0" departPos="0" departSpeed="5.4568" id="312" type="passenger">
		<route edges="54569 54496 54530 54499 54547 54490"/>
	</vehicle>
	<vehicle depart="0.1" departLane="0" departPos="5.926569844277144" departSpeed="7.0566" id="313" type="passenger">
		<route edges="54551 54499 54547 54490"/>
	</vehicle>
	<vehicle depart="0.1" departLane="0" departPos="22.350462836921253" departSpeed="11.6192" id="314" type="passenger">
		<route edges="54503 54551 54499 54555 54495"/>
	</vehicle>
	<vehicle depart="0.1" departLane="0" departPos="38.02395903202448" departSpeed="6.1293" id="315" type="passenger">
		<route edges="54454 54562 54484 54582 54486"/>
	</vehicle>
	<vehicle depart="0.1" departLane="0" departPos="41.55751034975277" departSpeed="0.0" id="316" type="passenger">
		<route edges="54460 54572 54454 54559 54459 54569 54496 54530 54499"/>
	</vehicle>
	<vehicle depart="0.1" departLane="0" departPos="51.722257894348566" departSpeed="0.6414" id="317" type="passenger">
		<route edges="54462 54573 54508 54541 54494 54519 54498 54535 54497 54518"/>
	</vehicle>
	<vehicle depart="0.1" departLane="0" departPos="0" departSpeed="7.3504" id="319" type="passenger">
		<route edges="54485 54580 54459 54570 54479 54590 54477 54583 54472"/>
	</vehicle>
	<vehicle depart="0.1" departLane="0" departPos="48.01541432202634" departSpeed="1.8896" id="320" type="passenger">
		<route edges="54506 54531 54514 54528 54462 54574 54457"/>
	</vehicle>
	<vehicle depart="0.1" departLane="0" departPos="0" departSpeed="4.2602" id="321" type="passenger">
		<route edges="54506 54531 54514 54528 54462 54574 54457"/>
	</vehicle>
	<vehicle depart="0.1" departLane="0" departPos="34.05620422471778" departSpeed="0.0" id="322" type="passenger">
		<route edges="54460 54572 54454 54559 54459 54569 54496 54530"/>
	</vehicle>
	<vehicle depart="0.1" departLane="0" departPos="99.6795417419232" departSpeed="0.0" id="324" type="passenger">
		<route edges="54456 54565 54508 54541 54494 54519 54498 54535 54497 54518 54458 54568 54484"/>
	</vehicle>
	<vehicle depart="0.1" departLane="0" departPos="0" departSpeed="5.1987" id="325" type="passenger">
		<route edges="54506 54531 54514 54528 54462 54574 54457"/>
	</vehicle>
	<vehicle depart="0.1" departLane="0" departPos="34.4632715788038" departSpeed="7.7825" id="326" type="passenger">
		<route edges="54494 54519 54498 54535 54497 54518 54458 54568 54484"/>
	</vehicle>
	<vehicle depart="0.1" departLane="0" departPos="135.54912033620957" departSpeed="0.0075" id="327" type="passenger">
		<route edges="54491 54595 54498 54535 54497 54518 54458"/>
	</vehicle>
	<vehicle depart="0.1" departLane="0" departPos="2.7515691510883626" departSpeed="7.5651" id="328" type="passenger">
		<route edges="54597 54462 54573 54508 54545 54482"/>
	</vehicle>
	<vehicle depart="0.1" departLane="0" departPos="0" departSpeed="9.7405" id="329" type="passenger">
		<route edges="54458 54568 54567 54568 54484 54586 54515 54543 54507 54549 54466"/>
	</vehicle>
	<vehicle depart="0.1" departLane="0" departPos="53.9310569147278" departSpeed="1.1904" id="330" type="passenger">
		<route edges="54474 54605 54500 54529 54512 54557 54454 54559 54459 54569 54496 54530 54499"/>
	</vehicle>
	<vehicle depart="0.1" departLane="0" departPos="33.26844564551378" departSpeed="0.0" id="331" type="passenger">
		<route edges="54514 54528 54462 54574 54457"/>
	</vehicle>
	<vehicle depart="0.1" departLane="0" departPos="0" departSpeed="6.8377" id="332" type="passenger">
		<route edges="54512 54557 54454 54559 54459 54569 54496 54530 54499"/>
	</vehicle>
	<vehicle depart="0.1" departLane="0" departPos="0" departSpeed="8.9434" id="333" type="passenger">
		<route edges="54478 54561 54496 54530 54499 54555 54495 54539 54509 54546 54457"/>
	</vehicle>
	<vehicle depart="0.1" departLane="0" departPos="53.9310569147278" departSpeed="0.2728" id="334" type="passenger">
		<route edges="54474 54605 54500 54529 54512 54557 54454 54559 54459 54569 54496 54530 54499"/>
	</vehicle>
	<vehicle depart="0.1" departLane="0" departPos="23.229448351510744" departSpeed="0.0125" id="335" type="passenger">
		<route edges="54514 54528 54462 54574 54457"/>
	</vehicle>
	<vehicle depart="0.1" departLane="0" departPos="99.6795417419232" departSpeed="0.0042" id="336" type="passenger">
		<route edges="54456 54566 54463 54579 54581 54485 54580 54459 54569 54496 54530 54499"/>
	</vehicle>
	<vehicle depart="0.1" departLane="0" departPos="34.932349750840345" departSpeed="2.6692" id="337" type="passenger">
		<route edges="54497 54518 54458 54568 54484"/>
	</vehicle>
	<vehicle depart="0.1" departLane="0" departPos="0" departSpeed="8.8963" id="338" type="passenger">
		<route edges="54498 54535 54497 54518 54458 54568 54484"/>
	</vehicle>
	<vehicle depart="0.1" departLane="0" departPos="0" departSpeed="6.9097" id="340" type="passenger">
		<route edges="54485 54578 54455 54564 54461"/>
	</vehicle>
	<vehicle depart="0.1" departLane="0" departPos="9.080235006831623" departSpeed="6.9308" id="341" type="passenger">
		<route edges="54596 54500 54529 54512 54557 54454 54559 54459 54569 54496 54530 54499"/>
	</vehicle>
	<vehicle depart="0.1" departLane="0" departPos="207.3811744466849" departSpeed="10.5231" id="342" type="passenger">
		<route edges="54488 54604 54476 54607 54478 54561 54496 54530 54499 54555 54495"/>
	</vehicle>
	<vehicle depart="0.1" departLane="0" departPos="6.00312545320045" departSpeed="7.3925" id="343" type="passenger">
		<route edges="54533 54463 54575 54486"/>
	</vehicle>
	<vehicle depart="0.1" departLane="0" departPos="102.53851036315591" departSpeed="7.4304" id="344" type="passenger">
		<route edges="54487 54577 54485 54580 54459 54569 54496 54530 54499"/>
	</vehicle>
	<vehicle depart="0.1" departLane="0" departPos="0" departSpeed="5.7999" id="345" type="passenger">
		<route edges="54506 54531 54514 54528 54462 54574 54457"/>
	</vehicle>
	<vehicle depart="0.1" departLane="0" departPos="3.9086525896547935" departSpeed="5.7668" id="346" type="passenger">
		<route edges="54598 54510"/>
	</vehicle>
	<vehicle depart="0.1" departLane="0" departPos="130.31654581936857" departSpeed="11.7869" id="347" type="passenger">
		<route edges="54488 54604 54607 54478 54560 54458 54568 54484"/>
	</vehicle>
	<vehicle depart="0.1" departLane="0" departPos="14.654771886332895" departSpeed="8.0709" id="348" type="passenger">
		<route edges="54588 54509 54533 54463 54579 54581 54485 54580 54459 54569 54496 54530 54499"/>
	</vehicle>
	<vehicle depart="0.1" departLane="0" departPos="75.97833936746264" departSpeed="7.308" id="349" type="passenger">
		<route edges="54487 54576 54515 54543 54507 54549 54466"/>
	</vehicle>
	<vehicle depart="0.1" departLane="0" departPos="8.056322097011357" departSpeed="5.9568" id="350" type="passenger">
		<route edges="54589 54506 54531 54514 54528 54462 54574 54457"/>
	</vehicle>
	<vehicle depart="0.1" departLane="0" departPos="92.07834654281967" departSpeed="7.0488" id="351" type="passenger">
		<route edges="54483 54588 54509 54533 54463 54575 54486"/>
	</vehicle>
	<vehicle depart="0.1" departLane="0" departPos="75.04747603607983" departSpeed="7.7544" id="352" type="passenger">
		<route edges="54483 54588 54509 54533 54463 54579 54581 54485 54580 54459 54569 54496 54530 54499"/>
	</vehicle>
	<vehicle depart="0.1" departLane="0" departPos="46.113969722135536" departSpeed="5.8871" id="353" type="passenger">
		<route edges="54467 54589 54506 54531 54514 54528 54462 54574 54457"/>
	</vehicle>
	<vehicle depart="0.1" departLane="0" departPos="12.987790306565271" departSpeed="2.774" id="354" type="passenger">
		<route edges="54469 54593 54503 54556 54497 54518 54458 54568 54484"/>
	</vehicle>
</routes>
