<routes>
	<vehicle depart="0.1" departLane="0" departPos="5.174441876200425" departSpeed="1.8159921" id="312" type="passenger">
		<route edges="95417 95357"/>
	</vehicle>
	<vehicle depart="0.1" departLane="0" departPos="34.697044485986126" departSpeed="14.108602" id="317" type="passenger">
		<route edges=":19_4 95639"/>
	</vehicle>
	<vehicle depart="0.1" departLane="0" departPos="9.677542416407064" departSpeed="11.005298" id="323" type="passenger">
		<route edges=":19_9 95357"/>
	</vehicle>
	<vehicle depart="0.1" departLane="0" departPos="27.93900222197709" departSpeed="13.37272" id="325" type="passenger">
		<route edges="95638 96030"/>
	</vehicle>
	<vehicle depart="0.1" departLane="0" departPos="9.739332982762868" departSpeed="16.291765" id="327" type="passenger">
		<route edges="95638 96030"/>
	</vehicle>
	<vehicle depart="0.1" departLane="0" departPos="19.685077358429005" departSpeed="0.97990366" id="318" type="truck">
		<route edges="96037 95636"/>
	</vehicle>
</routes>
