<routes>
	<vehicle depart="0.1" departLane="0" departPos="84.49627612604235" departSpeed="1.3428107" id="315" type="passenger">
		<route edges="3556 3553 3550"/>
	</vehicle>
	<vehicle depart="0.1" departLane="0" departPos="74.40283832502051" departSpeed="0.91003604" id="317" type="passenger">
		<route edges="3556 3553"/>
	</vehicle>
	<vehicle depart="0.1" departLane="0" departPos="64.08470558270278" departSpeed="0.43328796" id="324" type="passenger">
		<route edges="3556 3553"/>
	</vehicle>
	<vehicle depart="0.1" departLane="0" departPos="49.63671973211591" departSpeed="1.0720245" id="335" type="passenger">
		<route edges="3556 3553"/>
	</vehicle>
	<vehicle depart="0.1" departLane="0" departPos="31.94705490787294" departSpeed="0.0" id="345" type="passenger">
		<route edges="3514 3557"/>
	</vehicle>
	<vehicle depart="0.1" departLane="0" departPos="40.233393695066994" departSpeed="0.70574087" id="359" type="passenger">
		<route edges="3556 3553"/>
	</vehicle>
	<vehicle depart="0.1" departLane="0" departPos="6.698960002317442" departSpeed="27.510142" id="392" type="passenger">
		<route edges=":117_4 3557 3340"/>
	</vehicle>
	<vehicle depart="0.1" departLane="0" departPos="54.17840066526754" departSpeed="1.4458003" id="326" type="motorcycle">
		<route edges="3556 3553"/>
	</vehicle>
</routes>
