<!-- generated on Tue Feb  9 22:16:59 2021 by Eclipse SUMO netconvert Version 1.8.0
<configuration xmlns:xsi="http://www.w3.org/2001/XMLSchema-instance" xsi:noNamespaceSchemaLocation="http://sumo.dlr.de/xsd/netconvertConfiguration.xsd">

    <input>
        <node-files value="./converted_scenarios/scenario-factory/ARG_Carcarana-2_1_I-1-1/ARG_Carcarana-2_1_I-1-1.nod.xml"/>
        <edge-files value="./converted_scenarios/scenario-factory/ARG_Carcarana-2_1_I-1-1/ARG_Carcarana-2_1_I-1-1.edg.xml"/>
        <connection-files value="./converted_scenarios/scenario-factory/ARG_Carcarana-2_1_I-1-1/ARG_Carcarana-2_1_I-1-1.con.xml"/>
        <tllogic-files value="./converted_scenarios/scenario-factory/ARG_Carcarana-2_1_I-1-1/ARG_Carcarana-2_1_I-1-1.tll.xml"/>
        <type-files value="/home/zen/commonroad-interactive-benchmarks/install/commonroad-map-tool/crmapconverter/sumo_map/templates/DEU.typ.xml"/>
    </input>

    <output>
        <output-file value="./converted_scenarios/scenario-factory/ARG_Carcarana-2_1_I-1-1/ARG_Carcarana-2_1_I-1-1.net.xml"/>
    </output>

    <processing>
        <geometry.remove.keep-edges.explicit value="true"/>
        <geometry.avoid-overlap value="true"/>
        <offset.disable-normalization value="true"/>
    </processing>

    <junctions>
        <no-turnarounds value="true"/>
        <junctions.internal-link-detail value="20"/>
    </junctions>

    <report>
        <aggregate-warnings value="5"/>
    </report>

    <random_number>
        <seed value="1234"/>
    </random_number>

</configuration>
--><net xmlns:xsi="http://www.w3.org/2001/XMLSchema-instance" version="1.6" junctionCornerDetail="5" junctionLinkDetail="20" limitTurnSpeed="5.50" xsi:noNamespaceSchemaLocation="http://sumo.dlr.de/xsd/net_file.xsd">

    <location netOffset="0.00,0.00" convBoundary="-164.69,-361.81,307.80,36.80" origBoundary="-164.69,-361.81,307.80,36.80" projParameter="!"/>

    <type id="highway.bridleway" priority="1" speed="2.78" allow="pedestrian" oneway="1" width="2.00"/>
    <type id="highway.bus_guideway" priority="1" speed="27.78" allow="bus" oneway="1"/>
    <type id="highway.cycleway" priority="1" speed="8.33" allow="bicycle" oneway="0" width="1.00"/>
    <type id="highway.footway" priority="1" speed="2.78" allow="pedestrian" oneway="1" width="2.00"/>
    <type id="highway.ford" priority="1" speed="2.78" allow="army" oneway="0"/>
    <type id="highway.living_street" priority="2" speed="2.78" disallow="tram rail_urban rail rail_electric rail_fast ship" oneway="0"/>
    <type id="highway.motorway" priority="14" speed="39.44" allow="private emergency authority army vip passenger hov taxi bus coach delivery truck trailer motorcycle evehicle custom1 custom2" oneway="1"/>
    <type id="highway.motorway_link" priority="9" speed="22.22" allow="private emergency authority army vip passenger hov taxi bus coach delivery truck trailer motorcycle evehicle custom1 custom2" oneway="1"/>
    <type id="highway.path" priority="1" speed="2.78" allow="pedestrian bicycle" oneway="0" width="2.00"/>
    <type id="highway.pedestrian" priority="1" speed="2.78" allow="pedestrian" oneway="1" width="2.00"/>
    <type id="highway.primary" priority="12" speed="27.78" disallow="pedestrian tram rail_urban rail rail_electric rail_fast ship" oneway="0"/>
    <type id="highway.primary_link" priority="7" speed="22.22" disallow="pedestrian tram rail_urban rail rail_electric rail_fast ship" oneway="0"/>
    <type id="highway.raceway" priority="15" speed="83.33" allow="vip" oneway="0"/>
    <type id="highway.residential" priority="3" speed="13.89" disallow="pedestrian tram rail_urban rail rail_electric rail_fast ship" oneway="0"/>
    <type id="highway.secondary" priority="11" speed="27.78" disallow="pedestrian tram rail_urban rail rail_electric rail_fast ship" oneway="0"/>
    <type id="highway.secondary_link" priority="6" speed="22.22" disallow="pedestrian tram rail_urban rail rail_electric rail_fast ship" oneway="0"/>
    <type id="highway.service" priority="1" speed="5.56" allow="pedestrian delivery bicycle" oneway="0"/>
    <type id="highway.stairs" priority="1" speed="1.39" allow="pedestrian" oneway="1" width="2.00"/>
    <type id="highway.step" priority="1" speed="1.39" allow="pedestrian" oneway="1" width="2.00"/>
    <type id="highway.steps" priority="1" speed="1.39" allow="pedestrian" oneway="1" width="2.00"/>
    <type id="highway.tertiary" priority="10" speed="22.22" disallow="pedestrian tram rail_urban rail rail_electric rail_fast ship" oneway="0"/>
    <type id="highway.tertiary_link" priority="5" speed="22.22" disallow="pedestrian tram rail_urban rail rail_electric rail_fast ship" oneway="0"/>
    <type id="highway.track" priority="1" speed="5.56" allow="pedestrian motorcycle moped bicycle" oneway="0"/>
    <type id="highway.trunk" priority="13" speed="27.78" disallow="pedestrian bicycle tram rail_urban rail rail_electric rail_fast ship" oneway="0"/>
    <type id="highway.trunk_link" priority="8" speed="22.22" disallow="pedestrian bicycle tram rail_urban rail rail_electric rail_fast ship" oneway="0"/>
    <type id="highway.unclassified" priority="4" speed="13.89" disallow="pedestrian tram rail_urban rail rail_electric rail_fast ship" oneway="0"/>
    <type id="highway.unsurfaced" priority="1" speed="8.33" disallow="tram rail_urban rail rail_electric rail_fast ship" oneway="0"/>
    <type id="railway.highspeed" priority="21" speed="69.44" allow="rail_fast" oneway="1"/>
    <type id="railway.light_rail" priority="19" speed="27.78" allow="rail_urban" oneway="1"/>
    <type id="railway.preserved" priority="16" speed="27.78" allow="rail" oneway="1"/>
    <type id="railway.rail" priority="20" speed="44.44" allow="rail" oneway="1"/>
    <type id="railway.subway" priority="18" speed="27.78" allow="rail_urban" oneway="1"/>
    <type id="railway.tram" priority="17" speed="13.89" allow="tram" oneway="1"/>

    <edge id=":117_0" function="internal">
        <lane id=":117_0_0" index="0" disallow="pedestrian tram rail_urban rail rail_electric rail_fast ship" speed="11.14" length="28.48" width="3.50" shape="81.94,-94.25 81.40,-96.47 80.71,-98.61 79.83,-100.65 78.75,-102.55 77.41,-104.27 76.69,-105.00 75.90,-105.69 75.05,-106.30 74.15,-106.84 73.20,-107.29 72.21,-107.67 71.22,-107.96 69.05,-108.34 66.85,-108.45 64.63,-108.33 61.25,-107.80"/>
    </edge>
    <edge id=":117_1" function="internal">
        <lane id=":117_1_0" index="0" disallow="pedestrian tram rail_urban rail rail_electric rail_fast ship" speed="36.11" length="38.81" width="3.50" shape="81.94,-94.25 78.00,-113.25 74.06,-132.25"/>
    </edge>
    <edge id=":117_2" function="internal">
        <lane id=":117_2_0" index="0" disallow="pedestrian tram rail_urban rail rail_electric rail_fast ship" speed="12.21" length="34.24" width="3.50" shape="81.94,-94.25 81.37,-98.03 81.24,-100.63 81.40,-103.25 81.88,-105.84 82.27,-107.16 82.77,-108.42 83.38,-109.64 84.09,-110.81 84.90,-111.90 85.80,-112.92 86.77,-113.86 87.83,-114.73 90.03,-116.17 92.37,-117.33 94.81,-118.24 98.49,-119.22"/>
    </edge>
    <edge id=":117_3" function="internal">
        <lane id=":117_3_0" index="0" disallow="pedestrian tram rail_urban rail rail_electric rail_fast ship" speed="11.21" length="28.67" width="3.50" shape="99.21,-115.80 96.01,-114.95 93.95,-114.18 91.97,-113.20 90.13,-111.99 89.27,-111.29 88.48,-110.53 87.75,-109.70 87.09,-108.81 86.52,-107.87 86.03,-106.89 85.62,-105.86 85.30,-104.80 84.89,-102.64 84.76,-100.44 84.87,-98.23 85.37,-94.96"/>
    </edge>
    <edge id=":117_4" function="internal">
        <lane id=":117_4_0" index="0" disallow="pedestrian tram rail_urban rail rail_electric rail_fast ship" speed="36.11" length="38.79" width="3.50" shape="99.21,-115.80 80.23,-111.80 61.25,-107.80"/>
    </edge>
    <edge id=":117_5" function="internal">
        <lane id=":117_5_0" index="0" disallow="pedestrian tram rail_urban rail rail_electric rail_fast ship" speed="12.23" length="34.51" width="3.50" shape="99.21,-115.80 95.28,-115.18 92.63,-115.03 89.98,-115.16 87.36,-115.62 86.09,-115.99 84.85,-116.47 83.65,-117.04 82.51,-117.72 81.43,-118.49 80.42,-119.36 79.50,-120.31 77.87,-122.41 76.55,-124.71 75.50,-127.15 74.68,-129.67 74.06,-132.25"/>
    </edge>
    <edge id=":117_6" function="internal">
        <lane id=":117_6_0" index="0" disallow="pedestrian tram rail_urban rail rail_electric rail_fast ship" speed="11.23" length="28.91" width="3.50" shape="77.48,-132.96 78.03,-130.72 78.73,-128.54 79.62,-126.47 80.72,-124.54 82.08,-122.79 82.81,-122.05 83.62,-121.35 84.48,-120.73 85.40,-120.19 86.36,-119.73 87.36,-119.35 88.37,-119.05 90.57,-118.66 92.80,-118.56 95.06,-118.68 98.49,-119.22"/>
    </edge>
    <edge id=":117_7" function="internal">
        <lane id=":117_7_0" index="0" disallow="pedestrian tram rail_urban rail rail_electric rail_fast ship" speed="36.11" length="38.81" width="3.50" shape="77.48,-132.96 81.42,-113.96 85.37,-94.96"/>
    </edge>
    <edge id=":117_8" function="internal">
        <lane id=":117_8_0" index="0" disallow="pedestrian tram rail_urban rail rail_electric rail_fast ship" speed="12.21" length="34.23" width="3.50" shape="77.48,-132.96 77.92,-130.45 78.16,-127.90 78.18,-125.30 77.90,-122.68 77.28,-120.11 76.81,-118.81 76.23,-117.58 75.55,-116.40 74.77,-115.28 73.89,-114.24 72.93,-113.27 71.89,-112.38 69.71,-110.90 67.37,-109.71 64.94,-108.78 61.25,-107.80"/>
    </edge>
    <edge id=":117_9" function="internal">
        <lane id=":117_9_0" index="0" disallow="pedestrian tram rail_urban rail rail_electric rail_fast ship" speed="11.20" length="28.66" width="3.50" shape="60.53,-111.22 63.72,-112.07 65.78,-112.86 67.75,-113.86 69.57,-115.10 70.41,-115.82 71.18,-116.60 71.89,-117.45 72.52,-118.35 73.07,-119.31 73.54,-120.31 73.92,-121.34 74.43,-123.48 74.66,-125.68 74.65,-127.88 74.43,-130.08 74.06,-132.25"/>
    </edge>
    <edge id=":117_10" function="internal">
        <lane id=":117_10_0" index="0" disallow="pedestrian tram rail_urban rail rail_electric rail_fast ship" speed="36.11" length="38.79" width="3.50" shape="60.53,-111.22 79.51,-115.22 98.49,-119.22"/>
    </edge>
    <edge id=":117_11" function="internal">
        <lane id=":117_11_0" index="0" disallow="pedestrian tram rail_urban rail rail_electric rail_fast ship" speed="12.15" length="34.08" width="3.50" shape="60.53,-111.22 64.41,-111.83 67.03,-111.97 69.65,-111.84 72.23,-111.39 73.49,-111.02 74.71,-110.56 75.89,-109.99 77.02,-109.32 78.08,-108.55 79.08,-107.70 80.00,-106.76 81.60,-104.69 82.90,-102.41 83.94,-100.01 84.75,-97.51 85.37,-94.96"/>
    </edge>
    <edge id=":118_0" function="internal">
        <lane id=":118_0_0" index="0" disallow="pedestrian tram rail_urban rail rail_electric rail_fast ship" speed="11.17" length="28.60" width="3.50" shape="67.13,-165.61 66.29,-168.79 65.51,-170.85 64.52,-172.81 63.29,-174.64 62.57,-175.47 61.80,-176.25 60.95,-176.96 60.05,-177.59 59.10,-178.14 58.10,-178.61 57.07,-178.98 54.93,-179.50 52.74,-179.72 50.54,-179.70 48.35,-179.49 46.18,-179.10"/>
    </edge>
    <edge id=":118_1" function="internal">
        <lane id=":118_1_0" index="0" disallow="pedestrian tram rail_urban rail rail_electric rail_fast ship" speed="36.11" length="38.84" width="3.50" shape="67.13,-165.61 63.19,-184.61 59.24,-203.64"/>
    </edge>
    <edge id=":118_2" function="internal">
        <lane id=":118_2_0" index="0" disallow="pedestrian tram rail_urban rail rail_electric rail_fast ship" speed="12.17" length="34.03" width="3.50" shape="67.13,-165.61 66.70,-168.09 66.46,-170.64 66.46,-173.23 66.75,-175.83 67.39,-178.38 67.88,-179.67 68.47,-180.89 69.16,-182.06 69.95,-183.16 70.83,-184.19 71.79,-185.13 72.84,-186.01 75.01,-187.46 77.34,-188.63 79.76,-189.54 83.43,-190.51"/>
    </edge>
    <edge id=":118_3" function="internal">
        <lane id=":118_3_0" index="0" disallow="pedestrian tram rail_urban rail rail_electric rail_fast ship" speed="11.16" length="28.45" width="3.50" shape="84.15,-187.09 80.97,-186.25 78.92,-185.47 76.97,-184.49 75.15,-183.28 74.31,-182.57 73.53,-181.81 72.81,-180.98 72.17,-180.09 71.62,-179.15 71.14,-178.16 70.75,-177.13 70.21,-175.01 69.97,-172.84 69.98,-170.65 70.19,-168.47 70.55,-166.33"/>
    </edge>
    <edge id=":118_4" function="internal">
        <lane id=":118_4_0" index="0" disallow="pedestrian tram rail_urban rail rail_electric rail_fast ship" speed="36.11" length="38.80" width="3.50" shape="84.15,-187.09 65.17,-183.10 46.18,-179.10"/>
    </edge>
    <edge id=":118_5" function="internal">
        <lane id=":118_5_0" index="0" disallow="pedestrian tram rail_urban rail rail_electric rail_fast ship" speed="12.20" length="34.34" width="3.50" shape="84.15,-187.09 80.24,-186.48 77.60,-186.35 74.96,-186.49 72.37,-186.97 71.11,-187.35 69.88,-187.83 68.69,-188.42 67.57,-189.10 66.50,-189.89 65.51,-190.76 64.60,-191.71 63.01,-193.81 61.71,-196.11 60.67,-198.54 59.86,-201.05 59.24,-203.64"/>
    </edge>
    <edge id=":118_6" function="internal">
        <lane id=":118_6_0" index="0" disallow="pedestrian tram rail_urban rail rail_electric rail_fast ship" speed="11.19" length="28.74" width="3.50" shape="62.66,-204.35 63.21,-202.09 63.91,-199.93 64.78,-197.86 65.87,-195.94 67.20,-194.19 67.92,-193.44 68.71,-192.73 69.56,-192.11 70.46,-191.56 71.41,-191.09 72.40,-190.70 73.40,-190.39 75.57,-189.99 77.79,-189.87 80.02,-189.98 83.43,-190.51"/>
    </edge>
    <edge id=":118_7" function="internal">
        <lane id=":118_7_0" index="0" disallow="pedestrian tram rail_urban rail rail_electric rail_fast ship" speed="36.11" length="38.83" width="3.50" shape="62.66,-204.35 66.61,-185.32 70.55,-166.33"/>
    </edge>
    <edge id=":118_8" function="internal">
        <lane id=":118_8_0" index="0" disallow="pedestrian tram rail_urban rail rail_electric rail_fast ship" speed="12.26" length="34.57" width="3.50" shape="62.67,-204.35 63.28,-200.39 63.41,-197.73 63.27,-195.08 62.81,-192.47 62.44,-191.19 61.96,-189.95 61.39,-188.75 60.71,-187.60 59.94,-186.53 59.07,-185.52 58.12,-184.59 56.03,-182.96 53.73,-181.63 51.29,-180.57 48.76,-179.74 46.18,-179.10"/>
    </edge>
    <edge id=":118_9" function="internal">
        <lane id=":118_9_0" index="0" disallow="pedestrian tram rail_urban rail rail_electric rail_fast ship" speed="11.27" length="29.00" width="3.50" shape="45.46,-182.53 47.71,-183.08 49.89,-183.79 51.96,-184.69 53.88,-185.80 55.63,-187.16 56.38,-187.90 57.07,-188.71 57.70,-189.58 58.24,-190.49 58.70,-191.46 59.08,-192.47 59.38,-193.48 59.78,-195.68 59.89,-197.92 59.77,-200.18 59.24,-203.64"/>
    </edge>
    <edge id=":118_10" function="internal">
        <lane id=":118_10_0" index="0" disallow="pedestrian tram rail_urban rail rail_electric rail_fast ship" speed="36.11" length="38.80" width="3.50" shape="45.46,-182.53 64.44,-186.52 83.43,-190.51"/>
    </edge>
    <edge id=":118_11" function="internal">
        <lane id=":118_11_0" index="0" disallow="pedestrian tram rail_urban rail rail_electric rail_fast ship" speed="12.17" length="34.18" width="3.50" shape="45.46,-182.53 47.97,-182.97 50.52,-183.22 53.12,-183.24 55.74,-182.97 58.30,-182.35 59.60,-181.88 60.83,-181.30 62.01,-180.62 63.13,-179.83 64.17,-178.96 65.13,-178.00 66.02,-176.95 67.48,-174.77 68.66,-172.43 69.58,-170.00 70.55,-166.33"/>
    </edge>
    <edge id=":119_0" function="internal">
        <lane id=":119_0_0" index="0" disallow="pedestrian tram rail_urban rail rail_electric rail_fast ship" speed="11.15" length="28.52" width="3.50" shape="207.64,-120.72 207.10,-122.96 206.40,-125.11 205.52,-127.15 204.44,-129.04 203.10,-130.76 202.38,-131.49 201.58,-132.18 200.73,-132.79 199.83,-133.33 198.88,-133.78 197.89,-134.16 196.89,-134.45 194.73,-134.83 192.53,-134.93 190.31,-134.81 186.92,-134.28"/>
    </edge>
    <edge id=":119_1" function="internal">
        <lane id=":119_1_0" index="0" disallow="pedestrian tram rail_urban rail rail_electric rail_fast ship" speed="36.11" length="38.79" width="3.50" shape="207.64,-120.72 203.69,-139.74 199.74,-158.70"/>
    </edge>
    <edge id=":119_2" function="internal">
        <lane id=":119_2_0" index="0" disallow="pedestrian tram rail_urban rail rail_electric rail_fast ship" speed="12.22" length="34.34" width="3.50" shape="207.64,-120.72 207.04,-124.66 206.91,-127.30 207.06,-129.93 207.54,-132.53 207.92,-133.79 208.40,-135.02 208.99,-136.20 209.67,-137.33 210.45,-138.40 211.32,-139.39 212.27,-140.30 214.37,-141.90 216.67,-143.21 219.09,-144.25 221.60,-145.07 224.16,-145.70"/>
    </edge>
    <edge id=":119_3" function="internal">
        <lane id=":119_3_0" index="0" disallow="pedestrian tram rail_urban rail rail_electric rail_fast ship" speed="11.22" length="28.77" width="3.50" shape="224.89,-142.28 222.65,-141.73 220.49,-141.03 218.42,-140.14 216.50,-139.05 214.75,-137.71 214.01,-136.99 213.30,-136.19 212.68,-135.34 212.13,-134.44 211.66,-133.49 211.27,-132.50 210.96,-131.50 210.55,-129.32 210.43,-127.11 210.54,-124.87 211.07,-121.44"/>
    </edge>
    <edge id=":119_4" function="internal">
        <lane id=":119_4_0" index="0" disallow="pedestrian tram rail_urban rail rail_electric rail_fast ship" speed="36.11" length="38.80" width="3.50" shape="224.89,-142.28 205.90,-138.28 186.92,-134.28"/>
    </edge>
    <edge id=":119_5" function="internal">
        <lane id=":119_5_0" index="0" disallow="pedestrian tram rail_urban rail rail_electric rail_fast ship" speed="12.21" length="34.38" width="3.50" shape="224.89,-142.28 222.36,-141.84 219.79,-141.58 217.18,-141.57 214.54,-141.86 211.97,-142.51 210.66,-143.00 209.43,-143.59 208.25,-144.29 207.14,-145.09 206.10,-145.98 205.15,-146.95 204.26,-148.02 202.80,-150.22 201.63,-152.57 200.71,-155.02 199.74,-158.70"/>
    </edge>
    <edge id=":119_6" function="internal">
        <lane id=":119_6_0" index="0" disallow="pedestrian tram rail_urban rail rail_electric rail_fast ship" speed="11.20" length="28.78" width="3.50" shape="203.17,-159.42 204.01,-156.22 204.79,-154.15 205.77,-152.16 207.00,-150.32 207.71,-149.47 208.48,-148.68 209.32,-147.95 210.22,-147.31 211.18,-146.74 212.17,-146.26 213.21,-145.87 215.36,-145.33 217.56,-145.09 219.78,-145.10 221.98,-145.32 224.16,-145.70"/>
    </edge>
    <edge id=":119_7" function="internal">
        <lane id=":119_7_0" index="0" disallow="pedestrian tram rail_urban rail rail_electric rail_fast ship" speed="36.11" length="38.79" width="3.50" shape="203.17,-159.42 207.11,-140.45 211.07,-121.44"/>
    </edge>
    <edge id=":119_8" function="internal">
        <lane id=":119_8_0" index="0" disallow="pedestrian tram rail_urban rail rail_electric rail_fast ship" speed="12.20" length="34.22" width="3.50" shape="203.17,-159.42 203.60,-156.93 203.85,-154.37 203.86,-151.77 203.58,-149.15 202.96,-146.59 202.48,-145.29 201.91,-144.05 201.23,-142.87 200.44,-141.75 199.57,-140.71 198.61,-139.75 197.56,-138.86 195.38,-137.38 193.04,-136.19 190.61,-135.27 186.92,-134.28"/>
    </edge>
    <edge id=":119_9" function="internal">
        <lane id=":119_9_0" index="0" disallow="pedestrian tram rail_urban rail rail_electric rail_fast ship" speed="11.20" length="28.64" width="3.50" shape="186.20,-137.70 189.39,-138.56 191.45,-139.34 193.42,-140.34 195.24,-141.58 196.08,-142.30 196.86,-143.08 197.57,-143.92 198.20,-144.83 198.75,-145.78 199.21,-146.78 199.60,-147.82 200.12,-149.96 200.34,-152.15 200.33,-154.36 200.11,-156.55 199.74,-158.70"/>
    </edge>
    <edge id=":119_10" function="internal">
        <lane id=":119_10_0" index="0" disallow="pedestrian tram rail_urban rail rail_electric rail_fast ship" speed="36.11" length="38.79" width="3.50" shape="186.20,-137.70 205.18,-141.70 224.16,-145.70"/>
    </edge>
    <edge id=":119_11" function="internal">
        <lane id=":119_11_0" index="0" disallow="pedestrian tram rail_urban rail rail_electric rail_fast ship" speed="12.16" length="34.11" width="3.50" shape="186.20,-137.70 190.09,-138.31 192.70,-138.46 195.32,-138.33 197.91,-137.88 199.16,-137.51 200.39,-137.04 201.57,-136.48 202.70,-135.81 203.77,-135.04 204.76,-134.19 205.68,-133.25 207.28,-131.18 208.59,-128.91 209.63,-126.50 210.44,-124.01 211.07,-121.44"/>
    </edge>
    <edge id=":120_0" function="internal">
        <lane id=":120_0_0" index="0" disallow="pedestrian tram rail_urban rail rail_electric rail_fast ship" speed="11.19" length="28.70" width="3.50" shape="-46.54,-66.91 -47.08,-69.15 -47.78,-71.31 -48.66,-73.37 -49.74,-75.29 -51.07,-77.05 -51.79,-77.79 -52.58,-78.50 -53.43,-79.12 -54.33,-79.67 -55.28,-80.14 -56.27,-80.53 -57.27,-80.83 -59.44,-81.24 -61.65,-81.36 -63.89,-81.24 -67.29,-80.71"/>
    </edge>
    <edge id=":120_1" function="internal">
        <lane id=":120_1_0" index="0" disallow="pedestrian tram rail_urban rail rail_electric rail_fast ship" speed="36.11" length="38.85" width="3.50" shape="-46.54,-66.91 -50.43,-85.94 -54.32,-104.97"/>
    </edge>
    <edge id=":120_2" function="internal">
        <lane id=":120_2_0" index="0" disallow="pedestrian tram rail_urban rail rail_electric rail_fast ship" speed="12.24" length="34.44" width="3.50" shape="-46.54,-66.91 -46.97,-69.44 -47.22,-72.01 -47.23,-74.63 -46.93,-77.27 -46.28,-79.85 -45.79,-81.15 -45.20,-82.39 -44.50,-83.57 -43.70,-84.68 -42.81,-85.72 -41.84,-86.68 -40.78,-87.57 -38.58,-89.03 -36.22,-90.22 -33.78,-91.14 -30.07,-92.13"/>
    </edge>
    <edge id=":120_3" function="internal">
        <lane id=":120_3_0" index="0" disallow="pedestrian tram rail_urban rail rail_electric rail_fast ship" speed="11.24" length="28.86" width="3.50" shape="-29.35,-88.71 -32.56,-87.85 -34.64,-87.06 -36.63,-86.07 -38.47,-84.84 -39.32,-84.12 -40.11,-83.34 -40.84,-82.50 -41.48,-81.60 -42.05,-80.64 -42.53,-79.64 -42.92,-78.60 -43.47,-76.45 -43.71,-74.25 -43.70,-72.02 -43.49,-69.81 -43.11,-67.63"/>
    </edge>
    <edge id=":120_4" function="internal">
        <lane id=":120_4_0" index="0" disallow="pedestrian tram rail_urban rail rail_electric rail_fast ship" speed="36.11" length="38.77" width="3.50" shape="-29.35,-88.71 -48.32,-84.71 -67.29,-80.71"/>
    </edge>
    <edge id=":120_5" function="internal">
        <lane id=":120_5_0" index="0" disallow="pedestrian tram rail_urban rail rail_electric rail_fast ship" speed="12.15" length="34.26" width="3.50" shape="-29.35,-88.71 -33.25,-88.09 -35.88,-87.94 -38.52,-88.06 -41.11,-88.50 -42.38,-88.86 -43.62,-89.32 -44.81,-89.88 -45.95,-90.54 -47.02,-91.31 -48.02,-92.16 -48.95,-93.10 -49.80,-94.11 -51.26,-96.30 -52.42,-98.67 -53.34,-101.14 -54.32,-104.97"/>
    </edge>
    <edge id=":120_6" function="internal">
        <lane id=":120_6_0" index="0" disallow="pedestrian tram rail_urban rail rail_electric rail_fast ship" speed="11.15" length="28.65" width="3.50" shape="-50.89,-105.66 -50.04,-102.32 -49.26,-100.23 -48.28,-98.24 -47.06,-96.41 -46.39,-95.61 -45.64,-94.86 -44.84,-94.17 -43.98,-93.56 -43.07,-93.04 -42.11,-92.59 -41.11,-92.22 -40.11,-91.93 -37.93,-91.56 -35.71,-91.46 -33.47,-91.59 -30.07,-92.13"/>
    </edge>
    <edge id=":120_7" function="internal">
        <lane id=":120_7_0" index="0" disallow="pedestrian tram rail_urban rail rail_electric rail_fast ship" speed="36.11" length="38.82" width="3.50" shape="-50.89,-105.66 -47.00,-86.64 -43.11,-67.63"/>
    </edge>
    <edge id=":120_8" function="internal">
        <lane id=":120_8_0" index="0" disallow="pedestrian tram rail_urban rail rail_electric rail_fast ship" speed="12.21" length="34.09" width="3.50" shape="-50.89,-105.66 -50.47,-103.15 -50.25,-100.60 -50.26,-98.01 -50.57,-95.40 -51.22,-92.86 -51.71,-91.57 -52.30,-90.35 -53.00,-89.18 -53.79,-88.08 -54.68,-87.05 -55.64,-86.11 -56.69,-85.23 -58.86,-83.78 -61.20,-82.61 -63.62,-81.69 -67.29,-80.71"/>
    </edge>
    <edge id=":120_9" function="internal">
        <lane id=":120_9_0" index="0" disallow="pedestrian tram rail_urban rail rail_electric rail_fast ship" speed="11.21" length="28.53" width="3.50" shape="-68.01,-84.14 -64.83,-84.98 -62.78,-85.76 -60.81,-86.74 -58.99,-87.96 -58.15,-88.67 -57.37,-89.44 -56.65,-90.27 -56.01,-91.16 -55.45,-92.10 -54.97,-93.09 -54.58,-94.12 -54.03,-96.24 -53.77,-98.42 -53.77,-100.62 -53.96,-102.80 -54.32,-104.97"/>
    </edge>
    <edge id=":120_10" function="internal">
        <lane id=":120_10_0" index="0" disallow="pedestrian tram rail_urban rail rail_electric rail_fast ship" speed="36.11" length="38.77" width="3.50" shape="-68.01,-84.14 -49.04,-88.13 -30.07,-92.13"/>
    </edge>
    <edge id=":120_11" function="internal">
        <lane id=":120_11_0" index="0" disallow="pedestrian tram rail_urban rail rail_electric rail_fast ship" speed="12.19" length="34.29" width="3.50" shape="-68.01,-84.14 -64.10,-84.75 -61.47,-84.88 -58.83,-84.74 -56.24,-84.26 -54.98,-83.88 -53.75,-83.40 -52.57,-82.81 -51.44,-82.13 -50.38,-81.35 -49.39,-80.47 -48.47,-79.52 -46.88,-77.42 -45.58,-75.13 -44.55,-72.70 -43.73,-70.19 -43.11,-67.63"/>
    </edge>
    <edge id=":121_0" function="internal">
        <lane id=":121_0_0" index="0" disallow="pedestrian tram rail_urban rail rail_electric rail_fast ship" speed="11.15" length="28.50" width="3.50" shape="96.33,-24.86 95.80,-27.07 95.10,-29.22 94.22,-31.27 93.14,-33.16 91.81,-34.89 91.09,-35.62 90.29,-36.31 89.44,-36.93 88.54,-37.46 87.59,-37.92 86.61,-38.30 85.61,-38.59 83.45,-38.97 81.25,-39.08 79.02,-38.96 75.64,-38.43"/>
    </edge>
    <edge id=":121_1" function="internal">
        <lane id=":121_1_0" index="0" disallow="pedestrian tram rail_urban rail rail_electric rail_fast ship" speed="36.11" length="38.83" width="3.50" shape="96.33,-24.86 92.39,-43.87 88.45,-62.88"/>
    </edge>
    <edge id=":121_2" function="internal">
        <lane id=":121_2_0" index="0" disallow="pedestrian tram rail_urban rail rail_electric rail_fast ship" speed="12.21" length="34.27" width="3.50" shape="96.33,-24.86 95.76,-28.64 95.63,-31.24 95.78,-33.87 96.26,-36.45 96.66,-37.77 97.16,-39.04 97.76,-40.26 98.47,-41.43 99.28,-42.53 100.18,-43.55 101.15,-44.49 102.22,-45.36 104.41,-46.80 106.76,-47.97 109.19,-48.88 112.88,-49.86"/>
    </edge>
    <edge id=":121_3" function="internal">
        <lane id=":121_3_0" index="0" disallow="pedestrian tram rail_urban rail rail_electric rail_fast ship" speed="11.21" length="28.70" width="3.50" shape="113.60,-46.44 110.40,-45.59 108.33,-44.81 106.35,-43.84 104.51,-42.62 103.66,-41.92 102.86,-41.16 102.13,-40.33 101.47,-39.44 100.90,-38.50 100.41,-37.51 100.01,-36.48 99.69,-35.42 99.28,-33.25 99.15,-31.05 99.26,-28.84 99.76,-25.57"/>
    </edge>
    <edge id=":121_4" function="internal">
        <lane id=":121_4_0" index="0" disallow="pedestrian tram rail_urban rail rail_electric rail_fast ship" speed="36.11" length="38.80" width="3.50" shape="113.60,-46.44 94.62,-42.43 75.64,-38.43"/>
    </edge>
    <edge id=":121_5" function="internal">
        <lane id=":121_5_0" index="0" disallow="pedestrian tram rail_urban rail rail_electric rail_fast ship" speed="12.22" length="34.50" width="3.50" shape="113.60,-46.44 109.67,-45.82 107.02,-45.67 104.37,-45.80 101.76,-46.26 100.48,-46.63 99.24,-47.10 98.04,-47.67 96.90,-48.35 95.82,-49.12 94.82,-49.99 93.89,-50.94 92.26,-53.04 90.94,-55.34 89.89,-57.78 89.07,-60.30 88.45,-62.88"/>
    </edge>
    <edge id=":121_6" function="internal">
        <lane id=":121_6_0" index="0" disallow="pedestrian tram rail_urban rail rail_electric rail_fast ship" speed="11.22" length="28.91" width="3.50" shape="91.87,-63.59 92.42,-61.34 93.12,-59.17 94.01,-57.10 95.11,-55.17 96.47,-53.43 97.20,-52.68 98.01,-51.99 98.87,-51.37 99.79,-50.83 100.75,-50.37 101.76,-49.99 102.77,-49.69 104.96,-49.30 107.20,-49.20 109.45,-49.32 112.88,-49.86"/>
    </edge>
    <edge id=":121_7" function="internal">
        <lane id=":121_7_0" index="0" disallow="pedestrian tram rail_urban rail rail_electric rail_fast ship" speed="36.11" length="38.83" width="3.50" shape="91.87,-63.59 95.82,-44.58 99.76,-25.57"/>
    </edge>
    <edge id=":121_8" function="internal">
        <lane id=":121_8_0" index="0" disallow="pedestrian tram rail_urban rail rail_electric rail_fast ship" speed="12.21" length="34.23" width="3.50" shape="91.87,-63.59 92.31,-61.08 92.55,-58.53 92.57,-55.93 92.29,-53.31 91.67,-50.74 91.19,-49.44 90.62,-48.21 89.94,-47.03 89.15,-45.91 88.28,-44.87 87.32,-43.91 86.27,-43.01 84.10,-41.54 81.76,-40.35 79.33,-39.42 75.64,-38.43"/>
    </edge>
    <edge id=":121_9" function="internal">
        <lane id=":121_9_0" index="0" disallow="pedestrian tram rail_urban rail rail_electric rail_fast ship" speed="11.20" length="28.66" width="3.50" shape="74.92,-41.85 78.11,-42.71 80.17,-43.50 82.14,-44.49 83.96,-45.74 84.79,-46.45 85.57,-47.23 86.28,-48.08 86.91,-48.98 87.46,-49.94 87.92,-50.94 88.30,-51.97 88.82,-54.12 89.05,-56.31 89.04,-58.51 88.82,-60.71 88.45,-62.88"/>
    </edge>
    <edge id=":121_10" function="internal">
        <lane id=":121_10_0" index="0" disallow="pedestrian tram rail_urban rail rail_electric rail_fast ship" speed="36.11" length="38.80" width="3.50" shape="74.92,-41.85 93.90,-45.86 112.88,-49.86"/>
    </edge>
    <edge id=":121_11" function="internal">
        <lane id=":121_11_0" index="0" disallow="pedestrian tram rail_urban rail rail_electric rail_fast ship" speed="12.15" length="34.10" width="3.50" shape="74.92,-41.85 78.81,-42.46 81.42,-42.60 84.04,-42.48 86.63,-42.02 87.89,-41.65 89.11,-41.18 90.29,-40.61 91.42,-39.94 92.48,-39.17 93.47,-38.32 94.39,-37.38 95.99,-35.30 97.29,-33.02 98.33,-30.61 99.14,-28.12 99.76,-25.57"/>
    </edge>
    <edge id=":122_0" function="internal">
        <lane id=":122_0_0" index="0" disallow="pedestrian tram rail_urban rail rail_electric rail_fast ship" speed="11.17" length="28.61" width="3.50" shape="192.80,-192.05 191.96,-195.24 191.18,-197.30 190.19,-199.26 188.95,-201.09 188.24,-201.92 187.46,-202.70 186.62,-203.41 185.72,-204.04 184.76,-204.59 183.76,-205.05 182.73,-205.43 180.59,-205.94 178.40,-206.17 176.20,-206.15 174.01,-205.93 171.84,-205.54"/>
    </edge>
    <edge id=":122_1" function="internal">