<!-- generated on 2020-12-18 15:55:20.351852 by ipykernel_launcher.py v1_2_0+5214-53edc58fcd
-->
<nodes>
	<node id="1" type="from" x="-34.36821666666667" y="-4.428466666666667"/>
	<node id="2" type="to" x="119.60889999999999" y="-8.06365"/>
</nodes>
