<!-- generated on Tue Feb  9 22:04:37 2021 by Eclipse SUMO netconvert Version 1.8.0
<configuration xmlns:xsi="http://www.w3.org/2001/XMLSchema-instance" xsi:noNamespaceSchemaLocation="http://sumo.dlr.de/xsd/netconvertConfiguration.xsd">

    <input>
        <node-files value="./converted_scenarios/scenario-factory/DEU_Speyer-5_1_I-1-1/DEU_Speyer-5_1_I-1-1.nod.xml"/>
        <edge-files value="./converted_scenarios/scenario-factory/DEU_Speyer-5_1_I-1-1/DEU_Speyer-5_1_I-1-1.edg.xml"/>
        <connection-files value="./converted_scenarios/scenario-factory/DEU_Speyer-5_1_I-1-1/DEU_Speyer-5_1_I-1-1.con.xml"/>
        <tllogic-files value="./converted_scenarios/scenario-factory/DEU_Speyer-5_1_I-1-1/DEU_Speyer-5_1_I-1-1.tll.xml"/>
        <type-files value="/home/zen/commonroad-interactive-benchmarks/install/commonroad-map-tool/crmapconverter/sumo_map/templates/DEU.typ.xml"/>
    </input>

    <output>
        <output-file value="./converted_scenarios/scenario-factory/DEU_Speyer-5_1_I-1-1/DEU_Speyer-5_1_I-1-1.net.xml"/>
    </output>

    <processing>
        <geometry.remove.keep-edges.explicit value="true"/>
        <geometry.avoid-overlap value="true"/>
        <offset.disable-normalization value="true"/>
    </processing>

    <junctions>
        <no-turnarounds value="true"/>
        <junctions.internal-link-detail value="20"/>
    </junctions>

    <report>
        <aggregate-warnings value="5"/>
    </report>

    <random_number>
        <seed value="1234"/>
    </random_number>

</configuration>
--><net xmlns:xsi="http://www.w3.org/2001/XMLSchema-instance" version="1.6" junctionCornerDetail="5" junctionLinkDetail="20" limitTurnSpeed="5.50" xsi:noNamespaceSchemaLocation="http://sumo.dlr.de/xsd/net_file.xsd">

    <location netOffset="0.00,0.00" convBoundary="-538.89,-823.54,-359.77,-650.05" origBoundary="-538.89,-823.54,-359.77,-650.05" projParameter="!"/>

    <type id="highway.bridleway" priority="1" speed="2.78" allow="pedestrian" oneway="1" width="2.00"/>
    <type id="highway.bus_guideway" priority="1" speed="27.78" allow="bus" oneway="1"/>
    <type id="highway.cycleway" priority="1" speed="8.33" allow="bicycle" oneway="0" width="1.00"/>
    <type id="highway.footway" priority="1" speed="2.78" allow="pedestrian" oneway="1" width="2.00"/>
    <type id="highway.ford" priority="1" speed="2.78" allow="army" oneway="0"/>
    <type id="highway.living_street" priority="2" speed="2.78" disallow="tram rail_urban rail rail_electric rail_fast ship" oneway="0"/>
    <type id="highway.motorway" priority="14" speed="39.44" allow="private emergency authority army vip passenger hov taxi bus coach delivery truck trailer motorcycle evehicle custom1 custom2" oneway="1"/>
    <type id="highway.motorway_link" priority="9" speed="22.22" allow="private emergency authority army vip passenger hov taxi bus coach delivery truck trailer motorcycle evehicle custom1 custom2" oneway="1"/>
    <type id="highway.path" priority="1" speed="2.78" allow="pedestrian bicycle" oneway="0" width="2.00"/>
    <type id="highway.pedestrian" priority="1" speed="2.78" allow="pedestrian" oneway="1" width="2.00"/>
    <type id="highway.primary" priority="12" speed="27.78" disallow="pedestrian tram rail_urban rail rail_electric rail_fast ship" oneway="0"/>
    <type id="highway.primary_link" priority="7" speed="22.22" disallow="pedestrian tram rail_urban rail rail_electric rail_fast ship" oneway="0"/>
    <type id="highway.raceway" priority="15" speed="83.33" allow="vip" oneway="0"/>
    <type id="highway.residential" priority="3" speed="13.89" disallow="pedestrian tram rail_urban rail rail_electric rail_fast ship" oneway="0"/>
    <type id="highway.secondary" priority="11" speed="27.78" disallow="pedestrian tram rail_urban rail rail_electric rail_fast ship" oneway="0"/>
    <type id="highway.secondary_link" priority="6" speed="22.22" disallow="pedestrian tram rail_urban rail rail_electric rail_fast ship" oneway="0"/>
    <type id="highway.service" priority="1" speed="5.56" allow="pedestrian delivery bicycle" oneway="0"/>
    <type id="highway.stairs" priority="1" speed="1.39" allow="pedestrian" oneway="1" width="2.00"/>
    <type id="highway.step" priority="1" speed="1.39" allow="pedestrian" oneway="1" width="2.00"/>
    <type id="highway.steps" priority="1" speed="1.39" allow="pedestrian" oneway="1" width="2.00"/>
    <type id="highway.tertiary" priority="10" speed="22.22" disallow="pedestrian tram rail_urban rail rail_electric rail_fast ship" oneway="0"/>
    <type id="highway.tertiary_link" priority="5" speed="22.22" disallow="pedestrian tram rail_urban rail rail_electric rail_fast ship" oneway="0"/>
    <type id="highway.track" priority="1" speed="5.56" allow="pedestrian motorcycle moped bicycle" oneway="0"/>
    <type id="highway.trunk" priority="13" speed="27.78" disallow="pedestrian bicycle tram rail_urban rail rail_electric rail_fast ship" oneway="0"/>
    <type id="highway.trunk_link" priority="8" speed="22.22" disallow="pedestrian bicycle tram rail_urban rail rail_electric rail_fast ship" oneway="0"/>
    <type id="highway.unclassified" priority="4" speed="13.89" disallow="pedestrian tram rail_urban rail rail_electric rail_fast ship" oneway="0"/>
    <type id="highway.unsurfaced" priority="1" speed="8.33" disallow="tram rail_urban rail rail_electric rail_fast ship" oneway="0"/>
    <type id="railway.highspeed" priority="21" speed="69.44" allow="rail_fast" oneway="1"/>
    <type id="railway.light_rail" priority="19" speed="27.78" allow="rail_urban" oneway="1"/>
    <type id="railway.preserved" priority="16" speed="27.78" allow="rail" oneway="1"/>
    <type id="railway.rail" priority="20" speed="44.44" allow="rail" oneway="1"/>
    <type id="railway.subway" priority="18" speed="27.78" allow="rail_urban" oneway="1"/>
    <type id="railway.tram" priority="17" speed="13.89" allow="tram" oneway="1"/>

    <edge id=":33_0" function="internal">
        <lane id=":33_0_0" index="0" disallow="pedestrian tram rail_urban rail rail_electric rail_fast ship" speed="11.32" length="28.39" width="3.48" shape="-468.33,-767.23 -470.14,-770.13 -471.49,-771.87 -473.00,-773.46 -474.67,-774.83 -476.51,-775.95 -477.44,-776.37 -478.42,-776.73 -479.44,-777.00 -480.44,-777.19 -482.59,-777.33 -484.74,-777.15 -486.88,-776.71 -488.99,-776.05 -492.13,-774.69"/>
    </edge>
    <edge id=":33_1" function="internal">
        <lane id=":33_1_0" index="0" disallow="pedestrian tram rail_urban rail rail_electric rail_fast ship" speed="12.22" length="34.10" width="3.50" shape="-468.33,-767.23 -469.49,-769.50 -470.48,-771.87 -471.26,-774.34 -471.76,-776.92 -471.91,-779.55 -471.84,-780.93 -471.64,-782.27 -471.34,-783.60 -470.92,-784.89 -470.39,-786.14 -469.76,-787.33 -469.02,-788.49 -467.39,-790.54 -465.53,-792.37 -463.50,-793.98 -460.32,-796.02"/>
    </edge>
    <edge id=":33_2" function="internal">
        <lane id=":33_2_0" index="0" disallow="pedestrian tram rail_urban rail rail_electric rail_fast ship" speed="11.22" length="28.57" width="3.50" shape="-458.57,-792.99 -461.34,-791.21 -463.06,-789.85 -464.63,-788.31 -466.00,-786.59 -466.59,-785.66 -467.10,-784.69 -467.53,-783.67 -467.87,-782.63 -468.12,-781.56 -468.27,-780.47 -468.33,-779.37 -468.21,-777.18 -467.79,-775.02 -467.13,-772.92 -466.28,-770.90 -465.28,-768.94"/>
    </edge>
    <edge id=":33_3" function="internal">
        <lane id=":33_3_0" index="0" disallow="pedestrian tram rail_urban rail rail_electric rail_fast ship" speed="36.11" length="38.23" width="3.48" shape="-458.57,-792.99 -478.40,-781.91 -490.26,-775.63 -492.13,-774.69"/>
    </edge>
    <edge id=":33_4" function="internal">
        <lane id=":33_4_0" index="0" disallow="pedestrian tram rail_urban rail rail_electric rail_fast ship" speed="36.11" length="38.02" width="3.50" shape="-493.70,-777.82 -491.84,-778.75 -480.04,-785.00 -460.32,-796.02"/>
    </edge>
    <edge id=":33_5" function="internal">
        <lane id=":33_5_0" index="0" disallow="pedestrian tram rail_urban rail rail_electric rail_fast ship" speed="12.31" length="33.80" width="3.50" shape="-493.70,-777.82 -490.08,-779.38 -487.60,-780.16 -485.06,-780.68 -482.47,-780.89 -479.88,-780.72 -478.60,-780.49 -477.35,-780.15 -476.13,-779.71 -474.95,-779.17 -472.73,-777.82 -470.72,-776.17 -468.93,-774.29 -467.34,-772.24 -465.28,-768.94"/>
    </edge>
    <edge id=":34_0" function="internal">
        <lane id=":34_0_0" index="0" disallow="pedestrian tram rail_urban rail rail_electric rail_fast ship" speed="36.11" length="38.53" width="3.50" shape="-409.04,-704.26 -425.74,-694.65 -442.44,-685.05"/>
    </edge>
    <edge id=":34_1" function="internal">
        <lane id=":34_1_0" index="0" disallow="pedestrian tram rail_urban rail rail_electric rail_fast ship" speed="11.89" length="32.39" width="3.50" shape="-409.04,-704.26 -412.33,-702.57 -414.67,-701.61 -417.10,-700.86 -419.64,-700.37 -422.23,-700.22 -423.59,-700.30 -424.92,-700.49 -426.23,-700.81 -427.51,-701.25 -428.74,-701.80 -429.91,-702.46 -431.01,-703.21 -432.06,-704.07 -433.87,-705.90 -435.44,-707.93 -436.77,-710.06"/>
    </edge>
    <edge id=":34_2" function="internal">
        <lane id=":34_2_0" index="0" disallow="pedestrian tram rail_urban rail rail_electric rail_fast ship" speed="10.83" length="26.83" width="3.50" shape="-433.73,-711.80 -432.60,-709.99 -431.28,-708.29 -429.76,-706.78 -428.92,-706.11 -428.03,-705.51 -427.09,-704.99 -426.11,-704.56 -425.09,-704.23 -424.04,-703.99 -422.98,-703.84 -421.90,-703.79 -419.76,-703.94 -417.66,-704.36 -415.61,-705.01 -413.63,-705.83 -410.76,-707.31"/>
    </edge>
    <edge id=":34_3" function="internal">
        <lane id=":34_3_0" index="0" disallow="pedestrian tram rail_urban rail rail_electric rail_fast ship" speed="11.87" length="32.08" width="3.50" shape="-433.73,-711.80 -432.55,-709.48 -431.60,-707.02 -430.95,-704.44 -430.75,-703.06 -430.68,-701.69 -430.73,-700.31 -430.90,-698.93 -431.21,-697.57 -431.64,-696.25 -432.19,-694.98 -432.84,-693.78 -433.61,-692.62 -435.28,-690.57 -437.18,-688.74 -439.24,-687.12 -442.44,-685.05"/>
    </edge>
    <edge id=":34_4" function="internal">
        <lane id=":34_4_0" index="0" disallow="pedestrian tram rail_urban rail rail_electric rail_fast ship" speed="10.81" length="26.55" width="3.50" shape="-444.22,-688.06 -441.42,-689.86 -439.68,-691.23 -438.08,-692.76 -436.67,-694.46 -436.06,-695.38 -435.52,-696.35 -435.07,-697.36 -434.71,-698.41 -434.46,-699.49 -434.31,-700.59 -434.26,-701.69 -434.31,-702.80 -434.45,-703.90 -434.98,-706.05 -435.78,-708.11 -436.77,-710.06"/>
    </edge>
    <edge id=":34_5" function="internal">
        <lane id=":34_5_0" index="0" disallow="pedestrian tram rail_urban rail rail_electric rail_fast ship" speed="36.11" length="38.60" width="3.50" shape="-444.22,-688.06 -427.49,-697.68 -410.76,-707.31"/>
    </edge>
    <edge id=":35_0" function="internal">
        <lane id=":35_0_0" index="0" disallow="pedestrian tram rail_urban rail rail_electric rail_fast ship" speed="10.86" length="27.10" width="3.50" shape="-436.90,-710.29 -437.47,-711.26 -438.73,-713.11 -440.14,-714.78 -441.75,-716.25 -442.58,-716.85 -443.47,-717.40 -444.40,-717.86 -445.36,-718.23 -446.35,-718.51 -447.37,-718.69 -448.41,-718.79 -449.46,-718.80 -450.50,-718.73 -452.66,-718.36 -454.77,-717.73 -456.84,-716.89 -459.87,-715.33"/>
    </edge>
    <edge id=":35_1" function="internal">
        <lane id=":35_1_0" index="0" disallow="pedestrian tram rail_urban rail rail_electric rail_fast ship" speed="36.11" length="36.75" width="3.50" shape="-436.90,-710.29 -450.17,-734.16 -454.69,-742.45"/>
    </edge>
    <edge id=":35_2" function="internal">
        <lane id=":35_2_0" index="0" disallow="pedestrian tram rail_urban rail rail_electric rail_fast ship" speed="36.11" length="36.69" width="3.50" shape="-451.62,-744.13 -447.10,-735.84 -433.86,-712.02"/>
    </edge>
    <edge id=":35_3" function="internal">
        <lane id=":35_3_0" index="0" disallow="pedestrian tram rail_urban rail rail_electric rail_fast ship" speed="12.26" length="34.09" width="3.50" shape="-451.62,-744.14 -450.48,-741.85 -449.52,-739.47 -448.77,-736.99 -448.31,-734.40 -448.20,-731.77 -448.29,-730.39 -448.50,-729.05 -448.83,-727.74 -449.26,-726.45 -449.80,-725.21 -450.43,-724.03 -451.17,-722.88 -452.80,-720.84 -454.66,-719.01 -456.69,-717.39 -459.87,-715.33"/>
    </edge>
    <edge id=":35_4" function="internal">
        <lane id=":35_4_0" index="0" disallow="pedestrian tram rail_urban rail rail_electric rail_fast ship" speed="11.27" length="28.59" width="3.50" shape="-461.62,-718.36 -458.85,-720.15 -457.13,-721.53 -455.56,-723.06 -454.19,-724.78 -453.60,-725.71 -453.08,-726.68 -452.64,-727.69 -452.28,-728.73 -452.02,-729.80 -451.85,-730.88 -451.77,-731.98 -451.86,-734.18 -452.25,-736.34 -452.88,-738.45 -453.71,-740.49 -454.69,-742.45"/>
    </edge>
    <edge id=":35_5" function="internal">
        <lane id=":35_5_0" index="0" disallow="pedestrian tram rail_urban rail rail_electric rail_fast ship" speed="11.89" length="32.71" width="3.50" shape="-461.62,-718.36 -458.13,-720.15 -455.70,-721.13 -453.19,-721.87 -450.61,-722.30 -449.31,-722.39 -448.00,-722.37 -446.70,-722.23 -445.41,-721.99 -444.16,-721.63 -442.94,-721.15 -441.77,-720.56 -440.66,-719.87 -439.61,-719.10 -437.68,-717.32 -436.00,-715.32 -434.53,-713.16 -433.86,-712.02"/>
    </edge>
    <edge id=":36_0" function="internal">
        <lane id=":36_0_0" index="0" disallow="pedestrian tram rail_urban rail rail_electric rail_fast ship" speed="36.11" length="38.33" width="3.50" shape="-483.72,-701.60 -500.35,-692.02 -516.94,-682.47"/>
    </edge>
    <edge id=":36_1" function="internal">
        <lane id=":36_1_0" index="0" disallow="pedestrian tram rail_urban rail rail_electric rail_fast ship" speed="12.28" length="34.51" width="3.50" shape="-483.72,-701.60 -487.30,-699.78 -489.77,-698.84 -492.34,-698.16 -494.96,-697.81 -496.29,-697.78 -497.61,-697.86 -498.93,-698.05 -500.22,-698.35 -501.48,-698.76 -502.70,-699.28 -503.87,-699.90 -506.06,-701.40 -508.03,-703.17 -509.80,-705.15 -511.38,-707.28 -512.80,-709.52"/>
    </edge>
    <edge id=":36_2" function="internal">
        <lane id=":36_2_0" index="0" disallow="pedestrian tram rail_urban rail rail_electric rail_fast ship" speed="11.28" length="28.96" width="3.50" shape="-509.78,-711.29 -508.55,-709.34 -507.18,-707.50 -505.68,-705.81 -504.03,-704.32 -502.19,-703.07 -501.27,-702.58 -500.28,-702.16 -499.27,-701.82 -498.23,-701.58 -497.17,-701.43 -496.10,-701.36 -495.05,-701.38 -492.85,-701.67 -490.69,-702.24 -488.59,-703.04 -485.46,-704.63"/>
    </edge>
    <edge id=":36_3" function="internal">
        <lane id=":36_3_0" index="0" disallow="pedestrian tram rail_urban rail rail_electric rail_fast ship" speed="12.12" length="34.04" width="3.50" shape="-509.78,-711.29 -508.57,-709.07 -507.52,-706.75 -506.66,-704.32 -506.06,-701.77 -505.80,-699.16 -505.82,-697.79 -505.96,-696.44 -506.21,-695.11 -506.57,-693.80 -507.06,-692.53 -507.64,-691.31 -508.33,-690.15 -509.11,-689.04 -510.82,-687.07 -512.74,-685.33 -514.80,-683.80 -516.94,-682.47"/>
    </edge>
    <edge id=":36_4" function="internal">
        <lane id=":36_4_0" index="0" disallow="pedestrian tram rail_urban rail rail_electric rail_fast ship" speed="11.11" length="28.44" width="3.50" shape="-518.70,-685.49 -516.85,-686.65 -515.09,-687.95 -513.47,-689.42 -512.04,-691.07 -511.41,-691.97 -510.86,-692.92 -510.38,-693.90 -510.00,-694.93 -509.71,-695.98 -509.51,-697.06 -509.40,-698.14 -509.39,-699.24 -509.61,-701.41 -510.11,-703.54 -510.84,-705.61 -511.75,-707.60 -512.80,-709.52"/>
    </edge>
    <edge id=":36_5" function="internal">
        <lane id=":36_5_0" index="0" disallow="pedestrian tram rail_urban rail rail_electric rail_fast ship" speed="36.11" length="38.36" width="3.50" shape="-518.70,-685.49 -502.10,-695.05 -485.46,-704.63"/>
    </edge>

    <edge id="58290" from="35" to="34" priority="3" type="highway.residential" spreadType="center" length="0.27" shape="-448.52,-725.00 -428.19,-702.25">
        <lane id="58290_0" index="0" disallow="pedestrian tram rail_urban rail rail_electric rail_fast ship" speed="36.11" length="0.27" width="3.50" customShape="1" shape="-433.86,-712.02 -433.80,-711.92 -433.72,-711.79"/>
    </edge>
    <edge id="58291" from="34" to="35" priority="3" type="highway.residential" spreadType="center" length="0.28" shape="-430.80,-699.92 -451.13,-722.67">
        <lane id="58291_0" index="0" disallow="pedestrian tram rail_urban rail rail_electric rail_fast ship" speed="36.11" length="0.28" width="3.50" customShape="1" shape="-436.77,-710.06 -436.85,-710.20 -436.91,-710.30"/>
    </edge>
    <edge id="58293" from="33" to="35" priority="3" type="highway.residential" spreadType="center" length="28.34" shape="-471.44,-780.29 -448.13,-724.39">
        <lane id="58293_0" index="0" disallow="pedestrian tram rail_urban rail rail_electric rail_fast ship" speed="36.11" length="28.34" width="3.50" customShape="1" shape="-465.28,-768.94 -460.28,-759.93 -451.61,-744.11"/>
    </edge>
    <edge id="58294" from="35" to="33" priority="3" type="highway.residential" spreadType="center" length="28.30" shape="-451.35,-723.04 -474.66,-778.95">
        <lane id="58294_0" index="0" disallow="pedestrian tram rail_urban rail rail_electric rail_fast ship" speed="36.11" length="28.30" width="3.50" customShape="1" shape="-454.69,-742.45 -463.34,-758.24 -468.34,-767.24"/>
    </edge>
    <edge id="58296" from="34" to="26" priority="3" type="highway.residential" spreadType="center" length="56.60" shape="-430.28,-702.65 -361.48,-735.14">
        <lane id="58296_0" index="0" disallow="pedestrian tram rail_urban rail rail_electric rail_fast ship" speed="36.11" length="56.60" width="3.50" customShape="1" shape="-410.76,-707.31 -386.12,-721.22 -361.48,-735.14"/>
    </edge>
    <edge id="58297" from="30" to="34" priority="3" type="highway.residential" spreadType="center" length="56.59" shape="-359.77,-732.08 -428.78,-699.49">
        <lane id="58297_0" index="0" disallow="pedestrian tram rail_urban rail rail_electric rail_fast ship" speed="36.11" length="56.59" width="3.50" customShape="1" shape="-359.77,-732.08 -384.40,-718.17 -409.05,-704.26"/>
    </edge>
    <edge id="58299" from="28" to="34" priority="3" type="highway.residential" spreadType="center" length="70.03" shape="-504.85,-653.08 -430.43,-702.56">
        <lane id="58299_0" index="0" disallow="pedestrian tram rail_urban rail rail_electric rail_fast ship" speed="36.11" length="70.03" width="3.50" customShape="1" shape="-504.85,-653.08 -444.19,-688.08"/>
    </edge>
    <edge id="58300" from="34" to="24" priority="3" type="highway.residential" spreadType="center" length="70.00" shape="-428.50,-699.65 -503.06,-650.05">
        <lane id="58300_0" index="0" disallow="pedestrian tram rail_urban rail rail_electric rail_fast ship" speed="36.11" length="70.00" width="3.50" customShape="1" shape="-442.44,-685.05 -503.06,-650.05"/>
    </edge>
    <edge id="58330" from="36" to="33" priority="3" type="highway.residential" spreadType="center" length="95.87" shape="-506.21,-699.77 -474.68,-780.26">
        <lane id="58330_0" index="0" disallow="pedestrian tram rail_urban rail rail_electric rail_fast ship" speed="36.11" length="95.87" width="3.50" customShape="1" shape="-512.80,-709.52 -519.71,-721.26 -526.05,-731.51 -529.20,-736.96 -532.99,-744.43 -533.67,-746.41 -533.91,-747.96 -533.88,-749.53 -533.66,-750.56 -533.10,-752.02 -531.80,-754.30 -531.19,-755.15 -530.09,-756.27 -525.96,-759.49 -520.37,-763.38 -514.12,-767.22 -506.77,-771.26 -493.66,-777.84"/>
    </edge>
    <edge id="58331" from="33" to="36" priority="3" type="highway.residential" spreadType="center" length="90.10" shape="-471.43,-778.99 -502.97,-698.50">
        <lane id="58331_0" index="0" disallow="pedestrian tram rail_urban rail rail_electric rail_fast ship" speed="36.11" length="90.10" width="3.48" customShape="1" shape="-492.13,-774.69 -504.80,-768.35 -511.87,-764.48 -517.87,-760.83 -523.24,-757.14 -527.21,-754.09 -528.21,-753.19 -528.64,-752.70 -529.84,-750.72 -530.30,-749.65 -530.43,-749.03 -530.38,-747.85 -530.07,-746.63 -529.34,-744.92 -525.69,-737.85 -522.64,-732.64 -516.50,-722.70 -509.78,-711.29"/>
    </edge>
    <edge id="58391" from="33" to="27" priority="3" type="highway.residential" spreadType="center" length="55.63" shape="-474.07,-781.04 -411.97,-823.54">
        <lane id="58391_0" index="0" disallow="pedestrian tram rail_urban rail rail_electric rail_fast ship" speed="36.11" length="55.63" width="3.50" customShape="1" shape="-460.32,-796.02 -436.13,-809.79 -411.97,-823.54"/>
    </edge>
    <edge id="58392" from="32" to="33" priority="3" type="highway.residential" spreadType="center" length="55.63" shape="-410.24,-820.50 -472.09,-778.15">
        <lane id="58392_0" index="0" disallow="pedestrian tram rail_urban rail rail_electric rail_fast ship" speed="36.11" length="55.63" width="3.50" customShape="1" shape="-410.24,-820.50 -434.40,-806.75 -458.59,-792.98"/>
    </edge>
    <edge id="58439" from="36" to="35" priority="3" type="highway.residential" spreadType="center" length="27.51" shape="-505.33,-700.74 -450.47,-725.36">
        <lane id="58439_0" index="0" disallow="pedestrian tram rail_urban rail rail_electric rail_fast ship" speed="36.11" length="27.51" width="3.50" customShape="1" shape="-485.46,-704.63 -473.56,-711.49 -461.62,-718.36"/>
    </edge>
    <edge id="58440" from="35" to="36" priority="3" type="highway.residential" spreadType="center" length="27.56" shape="-449.04,-722.17 -503.90,-697.55">
        <lane id="58440_0" index="0" disallow="pedestrian tram rail_urban rail rail_electric rail_fast ship" speed="36.11" length="27.56" width="3.50" customShape="1" shape="-459.87,-715.33 -471.81,-708.45 -483.75,-701.58"/>
    </edge>
    <edge id="58442" from="31" to="36" priority="3" type="highway.residential" spreadType="center" length="23.32" shape="-538.89,-673.87 -505.61,-700.57">
        <lane id="58442_0" index="0" disallow="pedestrian tram rail_urban rail rail_electric rail_fast ship" speed="36.11" length="23.32" width="3.50" customShape="1" shape="-538.89,-673.87 -528.80,-679.68 -518.68,-685.50"/>
    </edge>
    <edge id="58443" from="36" to="18" priority="3" type="highway.residential" spreadType="center" length="23.32" shape="-503.42,-697.84 -537.15,-670.83">
        <lane id="58443_0" index="0" disallow="pedestrian tram rail_urban rail rail_electric rail_fast ship" speed="36.11" length="23.32" width="3.50" customShape="1" shape="-516.94,-682.47 -527.05,-676.65 -537.15,-670.83"/>
    </edge>

    <junction id="18" type="dead_end" x="-537.15" y="-670.83" incLanes="58443_0" intLanes="" shape="-536.27,-669.32 -538.02,-672.35" rightOfWay="edgePriority"/>
    <junction id="24" type="dead_end" x="-503.06" y="-650.05" incLanes="58300_0" intLanes="" shape="-502.19,-648.53 -503.94,-651.56" rightOfWay="edgePriority"/>
    <junction id="26" type="dead_end" x="-361.48" y="-735.14" incLanes="58296_0" intLanes="" shape="-362.34,-736.66 -360.62,-733.61" rightOfWay="edgePriority"/>
    <junction id="27" type="dead_end" x="-411.97" y="-823.54" incLanes="58391_0" intLanes="" shape="-412.83,-825.06 -411.10,-822.02" rightOfWay="edgePriority"/>
    <junction id="28" type="dead_end" x="-504.85" y="-653.08" incLanes="" intLanes="" shape="-503.97,-651.56 -505.72,-654.59" rightOfWay="edgePriority"/>
    <junction id="30" type="dead_end" x="-359.77" y="-732.08" incLanes="" intLanes="" shape="-360.63,-733.61 -358.91,-730.56" rightOfWay="edgePriority"/>
    <junction id="31" type="dead_end" x="-538.89" y="-673.87" incLanes="" intLanes="" shape="-538.02,-672.35 -539.77,-675.38" rightOfWay="edgePriority"/>
    <junction id="32" type="dead_end" x="-410.24" y="-820.50" incLanes="" intLanes="" shape="-411.10,-822.02 -409.37,-818.98" rightOfWay="edgePriority"/>
    <junction id="33" type="priority" x="-473.05" y="-779.62" incLanes="58294_0 58392_0 58330_0" intLanes=":33_0_0 :33_1_0 :33_2_0 :33_3_0 :33_4_0 :33_5_0" shape="-469.87,-766.39 -463.75,-769.79 -465.72,-774.24 -466.50,-778.36 -466.09,-782.14 -464.49,-785.58 -461.70,-788.69 -457.72,-791.46 -461.19,-797.54 -494.49,-779.39 -491.36,-773.14 -486.90,-774.89 -482.80,-775.48 -479.04,-774.93 -475.64,-773.23 -472.58,-770.39">
        <request index="0" response="001000" foes="001000" cont="0"/>
        <request index="1" response="111000" foes="111000" cont="0"/>
        <request index="2" response="000000" foes="100000" cont="0"/>
        <request index="3" response="000000" foes="100011" cont="0"/>
        <request index="4" response="000000" foes="000010" cont="0"/>
        <request index="5" response="001100" foes="001110" cont="0"/>
    </junction>
    <junction id="34" type="priority" x="-429.49" y="-701.09" incLanes="58297_0 58290_0 58299_0" intLanes=":34_0_0 :34_1_0 :34_2_0 :34_3_0 :34_4_0 :34_5_0" shape="-408.18,-702.74 -411.62,-708.83 -416.09,-706.74 -420.13,-705.74 -423.77,-705.84 -427.00,-707.02 -429.81,-709.30 -432.21,-712.66 -438.29,-709.20 -436.61,-705.37 -436.05,-701.77 -436.62,-698.39 -438.31,-695.23 -441.12,-692.30 -445.06,-689.59 -441.56,-683.53">
        <request index="0" response="000000" foes="001000" cont="0"/>
        <request index="1" response="110000" foes="111000" cont="0"/>
        <request index="2" response="100000" foes="100000" cont="0"/>
        <request index="3" response="100011" foes="100011" cont="0"/>
        <request index="4" response="000000" foes="000010" cont="0"/>
        <request index="5" response="000000" foes="001110" cont="0"/>
    </junction>
    <junction id="35" type="priority" x="-449.76" y="-723.76" incLanes="58291_0 58293_0 58439_0" intLanes=":35_0_0 :35_1_0 :35_2_0 :35_3_0 :35_4_0 :35_5_0" shape="-438.43,-709.44 -432.34,-712.89 -450.09,-744.97 -456.22,-741.61 -454.30,-737.18 -453.56,-733.07 -454.02,-729.29 -455.65,-725.83 -458.48,-722.69 -462.49,-719.88 -459.00,-713.81 -454.63,-715.88 -450.64,-716.83 -447.03,-716.66 -443.78,-715.37 -440.92,-712.96">
        <request index="0" response="000000" foes="001000" cont="0"/>
        <request index="1" response="000000" foes="111000" cont="0"/>
        <request index="2" response="000000" foes="100000" cont="0"/>
        <request index="3" response="000011" foes="100011" cont="0"/>
        <request index="4" response="000010" foes="000010" cont="0"/>
        <request index="5" response="001110" foes="001110" cont="0"/>
    </junction>
    <junction id="36" type="priority" x="-504.57" y="-699.16" incLanes="58440_0 58331_0 58442_0" intLanes=":36_0_0 :36_1_0 :36_2_0 :36_3_0 :36_4_0 :36_5_0" shape="-482.85,-700.08 -486.34,-706.14 -490.76,-704.11 -494.88,-703.30 -498.70,-703.69 -502.20,-705.31 -505.40,-708.13 -508.29,-712.17 -514.31,-708.63 -512.18,-704.17 -511.26,-700.06 -511.53,-696.28 -513.01,-692.85 -515.68,-689.77 -519.56,-687.02 -516.07,-680.95">
        <request index="0" response="000000" foes="001000" cont="0"/>
        <request index="1" response="110000" foes="111000" cont="0"/>
        <request index="2" response="100000" foes="100000" cont="0"/>
        <request index="3" response="100011" foes="100011" cont="0"/>
        <request index="4" response="000000" foes="000010" cont="0"/>
        <request index="5" response="000000" foes="001110" cont="0"/>
    </junction>

    <connection from="58290" to="58296" fromLane="0" toLane="0" contPos="-4.00" shape="-433.72,-711.79 -432.60,-709.99 -431.28,-708.29 -429.76,-706.78 -428.92,-706.11 -428.03,-705.51 -427.09,-704.99 -426.11,-704.56 -425.09,-704.23 -424.04,-703.99 -422.98,-703.84 -421.90,-703.79 -419.76,-703.94 -417.66,-704.36 -415.61,-705.01 -413.63,-705.83 -410.76,-707.31" via=":34_2_0" dir="r" state="m"/>
    <connection from="58290" to="58300" fromLane="0" toLane="0" contPos="-4.00" shape="-433.72,-711.79 -432.55,-709.48 -431.60,-707.02 -430.95,-704.44 -430.75,-703.06 -430.68,-701.69 -430.73,-700.31 -430.90,-698.93 -431.21,-697.57 -431.64,-696.25 -432.19,-694.98 -432.84,-693.78 -433.61,-692.62 -435.28,-690.57 -437.18,-688.74 -439.24,-687.12 -442.44,-685.05" via=":34_3_0" dir="l" state="m"/>
    <connection from="58291" to="58440" fromLane="0" toLane="0" contPos="-4.00" shape="-436.90,-710.29 -437.47,-711.26 -438.73,-713.11 -440.14,-714.78 -441.75,-716.25 -442.58,-716.85 -443.47,-717.40 -444.40,-717.86 -445.36,-718.23 -446.35,-718.51 -447.37,-718.69 -448.41,-718.79 -449.46,-718.80 -450.50,-718.73 -452.66,-718.36 -454.77,-717.73 -456.84,-716.89 -459.87,-715.33" via=":35_0_0" dir="r" state="M"/>
    <connection from="58291" to="58294" fromLane="0" toLane="0" contPos="-4.00" shape="-436.90,-710.29 -450.17,-734.16 -454.69,-742.45" via=":35_1_0" dir="s" state="M"/>
    <connection from="58293" to="58290" fromLane="0" toLane="0" contPos="-4.00" shape="-451.61,-744.11 -447.10,-735.84 -433.86,-712.02" via=":35_2_0" dir="s" state="M"/>
    <connection from="58293" to="58440" fromLane="0" toLane="0" contPos="-4.00" shape="-451.61,-744.11 -450.48,-741.85 -449.52,-739.47 -448.77,-736.99 -448.31,-734.40 -448.20,-731.77 -448.29,-730.39 -448.50,-729.05 -448.83,-727.74 -449.26,-726.45 -449.80,-725.21 -450.43,-724.03 -451.17,-722.88 -452.80,-720.84 -454.66,-719.01 -456.69,-717.39 -459.87,-715.33" via=":35_3_0" dir="l" state="m"/>
    <connection from="58294" to="58331" fromLane="0" toLane="0" contPos="-4.00" shape="-468.33,-767.23 -470.14,-770.13 -471.49,-771.87 -473.00,-773.46 -474.67,-774.83 -476.51,-775.95 -477.44,-776.37 -478.42,-776.73 -479.44,-777.00 -480.44,-777.19 -482.59,-777.33 -484.74,-777.15 -486.88,-776.71 -488.99,-776.05 -492.13,-774.69" via=":33_0_0" dir="r" state="m"/>
    <connection from="58294" to="58391" fromLane="0" toLane="0" contPos="-4.00" shape="-468.33,-767.23 -469.49,-769.50 -470.48,-771.87 -471.26,-774.34 -471.76,-776.92 -471.91,-779.55 -471.84,-780.93 -471.64,-782.27 -471.34,-783.60 -470.92,-784.89 -470.39,-786.14 -469.76,-787.33 -469.02,-788.49 -467.39,-790.54 -465.53,-792.37 -463.50,-793.98 -460.32,-796.02" via=":33_1_0" dir="l" state="m"/>