<routes>
	<vehicle depart="0.1" departLane="0" departPos="14.35815627627201" departSpeed="6.9393773" id="37" type="bicycle">
		<route edges=":34_2 58296"/>
	</vehicle>
	<vehicle depart="0.1" departLane="0" departPos="12.273507439845444" departSpeed="0.24740456" id="327" type="bus">
		<route edges=":35_0 58440"/>
	</vehicle>
	<vehicle depart="0.1" departLane="0" departPos="54.19300442330894" departSpeed="2.0881474" id="333" type="bus">
		<route edges="58299 58296"/>
	</vehicle>
	<vehicle depart="0.1" departLane="0" departPos="26.49543191652037" departSpeed="1.4710951" id="35" type="passenger">
		<route edges=":35_0 58440 58443"/>
	</vehicle>
	<vehicle depart="0.1" departLane="0" departPos="8.174087867794805" departSpeed="4.01361" id="311" type="passenger">
		<route edges=":34_0 58300"/>
	</vehicle>
	<vehicle depart="0.1" departLane="0" departPos="2.774603909724839" departSpeed="6.338067" id="314" type="passenger">
		<route edges="58290 58300"/>
	</vehicle>
	<vehicle depart="0.1" departLane="0" departPos="50.6494072716665" departSpeed="3.5183056" id="324" type="passenger">
		<route edges="58297 58300"/>
	</vehicle>
	<vehicle depart="0.1" departLane="0" departPos="33.2521993184486" departSpeed="3.8228921" id="329" type="passenger">
		<route edges="58297 58291"/>
	</vehicle>
	<vehicle depart="0.1" departLane="0" departPos="7.911184272334339" departSpeed="2.6795089" id="331" type="passenger">
		<route edges=":34_4 58291"/>
	</vehicle>
	<vehicle depart="0.1" departLane="0" departPos="18.51291468865075" departSpeed="0.016507847" id="339" type="passenger">
		<route edges="58297 58291"/>
	</vehicle>
</routes>
