<routes>
	<vehicle depart="0.1" departLane="0" departPos="28.28547705171874" departSpeed="6.8939414" id="37" type="bicycle">
		<route edges=":74_2 41135 41118"/>
	</vehicle>
	<vehicle depart="0.1" departLane="0" departPos="30.52001006049011" departSpeed="1.8075344" id="312" type="passenger">
		<route edges="41117 41134"/>
	</vehicle>
	<vehicle depart="0.1" departLane="0" departPos="50.6785469985514" departSpeed="1.1351003" id="318" type="passenger">
		<route edges="41117 41134"/>
	</vehicle>
	<vehicle depart="0.1" departLane="0" departPos="19.655973602455674" departSpeed="1.094955" id="320" type="passenger">
		<route edges="41117 41134"/>
	</vehicle>
	<vehicle depart="0.1" departLane="0" departPos="18.833516339872293" departSpeed="4.6395317" id="336" type="passenger">
		<route edges=":75_5 41138"/>
	</vehicle>
	<vehicle depart="0.1" departLane="0" departPos="8.480199361004843" departSpeed="1.2607226" id="338" type="passenger">
		<route edges="41117 41134"/>
	</vehicle>
	<vehicle depart="0.1" departLane="0" departPos="25.19119978999085" departSpeed="0.70069467" id="369" type="passenger">
		<route edges=":72_1 41137 41134"/>
	</vehicle>
	<vehicle depart="0.1" departLane="0" departPos="2.5" departSpeed="0.52702342" id="389" type="passenger">
		<route edges=":72_5 41141 41310"/>
	</vehicle>
	<vehicle depart="0.1" departLane="0" departPos="36.998957547754465" departSpeed="0.43586449" id="322" type="motorcycle">
		<route edges="41117 41134"/>
	</vehicle>
</routes>
