<!-- generated on 2020-12-18 16:00:51.650970 by ipykernel_launcher.py v1_2_0+5214-53edc58fcd
-->
<edges>
	<edge from="1" function="normal" id="3431" length="7.746632106922332" numLanes="5" priority="1" speed="36.11111111111111" spreadType="center" to="2">
		<lane allow="moped bicycle pedestrian custom1 trailer evehicle rail_urban ship private truck vip custom2 authority delivery rail_electric taxi tram army hov coach motorcycle passenger bus rail emergency" index="0" length="7.746632106922332" shape="23.008049999999997,37.0891 19.46595,30.0786" speed="36.11111111111111" width="2.841755522559954"/>
		<lane allow="moped bicycle pedestrian custom1 trailer evehicle rail_urban ship private truck vip custom2 authority delivery rail_electric taxi tram army hov coach motorcycle passenger bus rail emergency" index="1" length="7.746632106922332" shape="25.6353,35.740399999999994 22.15245,28.7325" speed="36.11111111111111" width="3.064659380746906"/>
		<lane allow="moped bicycle pedestrian custom1 trailer evehicle rail_urban ship private truck vip custom2 authority delivery rail_electric taxi tram army hov coach motorcycle passenger bus rail emergency" index="2" length="7.746632106922332" shape="28.34635,34.34865 24.8987,27.374000000000002" speed="36.11111111111111" width="3.0301778330652454"/>
		<lane allow="moped bicycle pedestrian custom1 trailer evehicle rail_urban ship private truck vip custom2 authority delivery rail_electric taxi tram army hov coach motorcycle passenger bus rail emergency" index="3" length="7.746632106922332" shape="31.0646,32.953199999999995 27.633200000000002,26.008" speed="36.11111111111111" width="3.0528378404363354"/>
		<lane allow="moped bicycle pedestrian custom1 trailer evehicle rail_urban ship private truck vip custom2 authority delivery rail_electric taxi tram army hov coach motorcycle passenger bus rail emergency" index="4" length="7.746632106922332" shape="33.7899,31.55415 30.35895,24.565199999999997" speed="36.11111111111111" width="3.0460097258544603"/>
	</edge>
	<edge from="2" function="normal" id="3438" length="8.438893355322127" numLanes="6" priority="1" speed="36.11111111111111" spreadType="center" to="3">
		<lane allow="moped bicycle pedestrian custom1 trailer evehicle rail_urban ship private truck vip custom2 authority delivery rail_electric taxi tram army hov coach motorcycle passenger bus rail emergency" index="0" length="8.438893355322127" shape="19.46595,30.0786 12.7911,23.80185" speed="36.11111111111111" width="2.94351281464851"/>
		<lane allow="moped bicycle pedestrian custom1 trailer evehicle rail_urban ship private truck vip custom2 authority delivery rail_electric taxi tram army hov coach motorcycle passenger bus rail emergency" index="1" length="8.438893355322127" shape="19.46595,30.0786 15.6324,22.46895" speed="36.11111111111111" width="2.94351281464851"/>
		<lane allow="moped bicycle pedestrian custom1 trailer evehicle rail_urban ship private truck vip custom2 authority delivery rail_electric taxi tram army hov coach motorcycle passenger bus rail emergency" index="2" length="8.438893355322127" shape="22.15245,28.7325 18.38095,21.1374" speed="36.11111111111111" width="3.0546153096584847"/>
		<lane allow="moped bicycle pedestrian custom1 trailer evehicle rail_urban ship private truck vip custom2 authority delivery rail_electric taxi tram army hov coach motorcycle passenger bus rail emergency" index="3" length="8.438893355322127" shape="24.8987,27.374000000000002 21.112000000000002,19.79455" speed="36.11111111111111" width="3.0324580145485935"/>
		<lane allow="moped bicycle pedestrian custom1 trailer evehicle rail_urban ship private truck vip custom2 authority delivery rail_electric taxi tram army hov coach motorcycle passenger bus rail emergency" index="4" length="8.438893355322127" shape="27.633200000000002,26.008 23.8309,18.41335" speed="36.11111111111111" width="3.0528378404363354"/>
		<lane allow="moped bicycle pedestrian custom1 trailer evehicle rail_urban ship private truck vip custom2 authority delivery rail_electric taxi tram army hov coach motorcycle passenger bus rail emergency" index="5" length="8.438893355322127" shape="30.35895,24.565199999999997 26.6188,17.0004" speed="36.11111111111111" width="3.115279160845783"/>
	</edge>
	<edge from="3" function="normal" id="3450" length="24.49487124148037" numLanes="6" priority="1" speed="36.11111111111111" spreadType="center" to="4">
		<lane allow="moped bicycle pedestrian custom1 trailer evehicle rail_urban ship private truck vip custom2 authority delivery rail_electric taxi tram army hov coach motorcycle passenger bus rail emergency" index="0" length="24.49487124148037" shape="12.7911,23.80185 9.6264,17.5678 5.8381,9.88065 1.7524,1.9360499999999998" speed="36.11111111111111" width="3.2241062653082646"/>
		<lane allow="moped bicycle pedestrian custom1 trailer evehicle rail_urban ship private truck vip custom2 authority delivery rail_electric taxi tram army hov coach motorcycle passenger bus rail emergency" index="1" length="24.49487124148037" shape="15.6324,22.46895 12.6249,16.41735 8.80195,8.4691 4.6981,0.33235000000000003" speed="36.11111111111111" width="2.8665619215359714"/>
		<lane allow="moped bicycle pedestrian custom1 trailer evehicle rail_urban ship private truck vip custom2 authority delivery rail_electric taxi tram army hov coach motorcycle passenger bus rail emergency" index="2" length="24.49487124148037" shape="18.38095,21.1374 15.357949999999999,15.08595 11.50415,7.1381499999999996 7.3406,-0.9862" speed="36.11111111111111" width="3.0042210737560584"/>
		<lane allow="moped bicycle pedestrian custom1 trailer evehicle rail_urban ship private truck vip custom2 authority delivery rail_electric taxi tram army hov coach motorcycle passenger bus rail emergency" index="3" length="24.49487124148037" shape="21.112000000000002,19.79455 18.025599999999997,13.6363 14.1409,5.6889 10.12525,-2.3606" speed="36.11111111111111" width="3.0189875720181423"/>
		<lane allow="moped bicycle pedestrian custom1 trailer evehicle rail_urban ship private truck vip custom2 authority delivery rail_electric taxi tram army hov coach motorcycle passenger bus rail emergency" index="4" length="24.49487124148037" shape="23.8309,18.41335 20.712449999999997,12.178650000000001 16.82775,4.231249999999999 12.888349999999999,-3.7539000000000002" speed="36.11111111111111" width="3.0183955092068384"/>
		<lane allow="moped bicycle pedestrian custom1 trailer evehicle rail_urban ship private truck vip custom2 authority delivery rail_electric taxi tram army hov coach motorcycle passenger bus rail emergency" index="5" length="24.49487124148037" shape="26.6188,17.0004 23.40635,10.67475 19.52165,2.72735 15.584150000000001,-5.1270500000000006" speed="36.11111111111111" width="3.0323687935341903"/>
	</edge>
	<edge from="4" function="normal" id="3664" length="45.62159337177896" numLanes="2" priority="1" speed="36.11111111111111" spreadType="center" to="5">
		<lane allow="moped bicycle pedestrian custom1 trailer evehicle rail_urban ship private vip custom2 authority delivery rail_electric taxi tram army hov coach motorcycle passenger rail emergency" index="0" length="45.62159337177896" shape="12.888349999999999,-3.7539000000000002 9.129999999999999,-11.1353 6.9946,-15.54325 5.9297,-18.07515 5.456250000000001,-20.122999999999998 5.32845,-22.4884 5.7699,-25.275100000000002 6.505,-27.8413 7.5714500000000005,-29.78005 8.984300000000001,-31.926450000000003 12.10455,-34.901399999999995 18.14915,-38.384100000000004 27.161900000000003,-43.0988" speed="36.11111111111111" width="2.934935747167219"/>
		<lane allow="moped bicycle pedestrian custom1 trailer evehicle rail_urban ship private vip custom2 authority delivery rail_electric taxi tram army hov coach motorcycle passenger rail emergency" index="1" length="45.62159337177896" shape="15.584150000000001,-5.1270500000000006 12.23275,-11.90325 10.62485,-15.94865 9.96105,-18.3399 9.6847,-20.12125 9.5167,-22.154049999999998 9.74595,-24.2618 10.3942,-26.02765 11.36055,-27.6087 12.68655,-29.22795 15.1594,-31.79635 20.424,-35.5547 28.70675,-40.0072" speed="36.11111111111111" width="3.0323687935341903"/>
	</edge>
	<edge from="5" function="normal" id="3495" length="15.184501575044735" numLanes="3" priority="1" speed="36.11111111111111" spreadType="center" to="6">
		<lane allow="moped bicycle pedestrian custom1 trailer evehicle rail_urban ship private truck vip custom2 authority delivery rail_electric taxi tram army hov coach motorcycle passenger bus rail emergency" index="0" length="15.184501575044735" shape="25.53885,-46.4269 34.266149999999996,-50.72195 39.173950000000005,-53.137249999999995" speed="36.11111111111111" width="3.8765859644795713"/>
		<lane allow="moped bicycle pedestrian custom1 trailer evehicle rail_urban ship private truck vip custom2 authority delivery rail_electric taxi tram army hov coach motorcycle passenger bus rail emergency" index="1" length="15.184501575044735" shape="27.161900000000003,-43.0988 35.88905,-47.39235 40.807649999999995,-49.81215" speed="36.11111111111111" width="3.511789538113012"/>
		<lane allow="moped bicycle pedestrian custom1 trailer evehicle rail_urban ship private truck vip custom2 authority delivery rail_electric taxi tram army hov coach motorcycle passenger bus rail emergency" index="2" length="15.184501575044735" shape="28.70675,-40.0072 37.38555,-44.275800000000004 42.33235,-46.70885" speed="36.11111111111111" width="3.382313814535842"/>
	</edge>
	<edge from="4" function="normal" id="3610" length="13.553882434287969" numLanes="3" priority="1" speed="36.11111111111111" spreadType="center" to="7">
		<lane allow="moped bicycle pedestrian custom1 trailer evehicle rail_urban ship private truck vip custom2 authority delivery rail_electric taxi tram army hov coach motorcycle passenger bus rail emergency" index="0" length="13.553882434287969" shape="4.6981,0.33235000000000003 -1.3386,-11.84355" speed="36.11111111111111" width="2.8665619215359714"/>
		<lane allow="moped bicycle pedestrian custom1 trailer evehicle rail_urban ship private truck vip custom2 authority delivery rail_electric taxi tram army hov coach motorcycle passenger bus rail emergency" index="1" length="13.553882434287969" shape="7.3406,-0.9862 1.39035,-13.1774" speed="36.11111111111111" width="3.0173836033888697"/>
		<lane allow="moped bicycle pedestrian custom1 trailer evehicle rail_urban ship private truck vip custom2 authority delivery rail_electric taxi tram army hov coach motorcycle passenger bus rail emergency" index="2" length="13.553882434287969" shape="10.12525,-2.3606 4.14645,-14.52455" speed="36.11111111111111" width="3.1180545505170367"/>
	</edge>
	<edge from="7" function="normal" id="3646" length="16.509632755735122" numLanes="3" priority="1" speed="36.11111111111111" spreadType="center" to="8">
		<lane allow="moped bicycle pedestrian custom1 trailer evehicle rail_urban ship private truck vip custom2 authority delivery rail_electric taxi tram army hov coach motorcycle passenger bus rail emergency" index="0" length="16.509632755735122" shape="-1.3386,-11.84355 -2.7725999999999997,-14.735949999999999 -4.40585,-18.0305 -5.81095,-20.8644 -7.196350000000001,-23.6588 -8.67195,-26.6351" speed="36.11111111111111" width="3.0575892938718896"/>
		<lane allow="moped bicycle pedestrian custom1 trailer evehicle rail_urban ship private truck vip custom2 authority delivery rail_electric taxi tram army hov coach motorcycle passenger bus rail emergency" index="1" length="16.509632755735122" shape="1.39035,-13.1774 -0.038899999999999935,-16.1056 -1.65315,-19.4131 -3.0442,-22.261200000000002 -4.4241,-25.08665 -5.8929,-28.093899999999998" speed="36.11111111111111" width="2.990382731357308"/>
		<lane allow="moped bicycle pedestrian custom1 trailer evehicle rail_urban ship private truck vip custom2 authority delivery rail_electric taxi tram army hov coach motorcycle passenger bus rail emergency" index="2" length="16.509632755735122" shape="4.14645,-14.52455 2.69585,-17.4758 1.0707,-20.7822 -0.33030000000000004,-23.6313 -1.7287,-26.47495 -3.21585,-29.499049999999997" speed="36.11111111111111" width="3.056448910091579"/>
	</edge>
	<edge from="8" function="normal" id="3626" length="12.190574110865326" numLanes="3" priority="1" speed="36.11111111111111" spreadType="center" to="9">
		<lane allow="moped bicycle pedestrian custom1 trailer evehicle rail_urban ship private truck vip custom2 authority delivery rail_electric taxi tram army hov coach motorcycle passenger bus rail emergency" index="0" length="12.190574110865326" shape="-8.67195,-26.6351 -14.087250000000001,-37.55685" speed="36.11111111111111" width="3.2869467488841373"/>
		<lane allow="moped bicycle pedestrian custom1 trailer evehicle rail_urban ship private truck vip custom2 authority delivery rail_electric taxi tram army hov coach motorcycle passenger bus rail emergency" index="1" length="12.190574110865326" shape="-5.8929,-28.093899999999998 -11.2436,-39.049499999999995" speed="36.11111111111111" width="2.969358961122754"/>
		<lane allow="moped bicycle pedestrian custom1 trailer evehicle rail_urban ship private truck vip custom2 authority delivery rail_electric taxi tram army hov coach motorcycle passenger bus rail emergency" index="2" length="12.190574110865326" shape="-3.21585,-29.499049999999997 -8.59555,-40.43945" speed="36.11111111111111" width="3.0119886487169913"/>
	</edge>
	<edge from="9" function="normal" id="3542" length="42.04503365774768" numLanes="3" priority="1" speed="36.11111111111111" spreadType="center" to="10">
		<lane allow="moped bicycle pedestrian custom1 trailer evehicle rail_urban ship private truck vip custom2 authority delivery rail_electric taxi tram army hov coach motorcycle passenger rail emergency" index="0" length="42.04503365774768" shape="-14.087250000000001,-37.55685 -18.24855,-46.09555 -22.3018,-55.025549999999996 -26.07385,-63.74405 -29.6986,-72.988 -31.016350000000003,-76.20115" speed="36.11111111111111" width="2.8481341330772993"/>
		<lane allow="moped bicycle pedestrian custom1 trailer evehicle rail_urban ship private truck vip custom2 authority delivery rail_electric taxi tram army hov coach motorcycle passenger bus rail emergency" index="1" length="42.04503365774768" shape="-11.2436,-39.049499999999995 -15.487,-47.604299999999995 -19.56915,-56.387699999999995 -23.3098,-65.07589999999999 -26.9638,-74.1962 -28.309849999999997,-77.53475" speed="36.11111111111111" width="2.969358961122754"/>
		<lane allow="moped bicycle pedestrian custom1 trailer evehicle rail_urban ship private truck vip custom2 authority delivery rail_electric taxi tram army hov coach motorcycle passenger bus rail emergency" index="2" length="42.04503365774768" shape="-8.59555,-40.43945 -12.818349999999999,-49.1194 -16.8687,-57.8417 -20.64025,-66.5295 -24.1351,-75.32885 -25.5478,-78.8957" speed="36.11111111111111" width="2.962201547835665"/>
	</edge>
	<edge from="4" function="normal" id="3604" length="15.837809304392046" numLanes="1" priority="1" speed="36.11111111111111" spreadType="center" to="11">
		<lane allow="moped bicycle pedestrian custom1 trailer evehicle rail_urban ship private vip custom2 authority delivery rail_electric taxi tram army hov coach motorcycle passenger rail emergency" index="0" length="15.837809304392046" shape="1.7524,1.9360499999999998 0.7101500000000001,0.66195 -0.5486,-0.8899 -1.9365999999999999,-2.28615 -3.817,-3.5214499999999997 -5.5182,-4.10525 -7.3144,-4.30295 -9.2361,-4.08345 -11.5521,-3.33125" speed="36.11111111111111" width="3.8433909311960446"/>
	</edge>
	<edge from="11" function="normal" id="3487" length="21.428343053831995" numLanes="3" priority="1" speed="36.11111111111111" spreadType="center" to="12">
		<lane allow="moped bicycle pedestrian custom1 trailer evehicle rail_urban ship private truck vip custom2 authority delivery rail_electric taxi tram army hov coach motorcycle passenger bus rail emergency" index="0" length="21.428343053831995" shape="-11.5521,-3.33125 -20.7656,1.1081500000000002 -29.6025,5.92685 -30.59885,6.472049999999999" speed="36.11111111111111" width="4.5764311619426765"/>
		<lane allow="moped bicycle pedestrian custom1 trailer evehicle rail_urban ship private truck vip custom2 authority delivery rail_electric taxi tram army hov coach motorcycle passenger bus rail emergency" index="1" length="21.428343053831995" shape="-13.269400000000001,-7.7852 -22.65985,-2.74315 -31.3063,2.42685 -32.33325,3.0433000000000003" speed="36.11111111111111" width="3.108481309256981"/>
		<lane allow="moped bicycle pedestrian custom1 trailer evehicle rail_urban ship private truck vip custom2 authority delivery rail_electric taxi tram army hov coach motorcycle passenger bus rail emergency" index="2" length="21.428343053831995" shape="-14.405100000000001,-11.016300000000001 -24.186799999999998,-5.76865 -32.83325,-0.59865 -33.862849999999995,0.01945000000000008" speed="36.11111111111111" width="3.664585112942528"/>
	</edge>
	<edge from="13" function="normal" id="3479" length="22.651817425696017" numLanes="3" priority="1" speed="36.11111111111111" spreadType="center" to="14">
		<lane allow="moped bicycle pedestrian custom1 trailer evehicle rail_urban ship private truck vip custom2 authority delivery rail_electric taxi tram army hov coach motorcycle passenger bus rail emergency" index="0" length="22.651817425696017" shape="-38.72615,-9.594850000000001 -37.583600000000004,-10.17275 -28.0036,-14.9251 -18.39315,-19.70865" speed="36.11111111111111" width="3.231198096681787"/>
		<lane allow="moped bicycle pedestrian custom1 trailer evehicle rail_urban ship private truck vip custom2 authority delivery rail_electric taxi tram army hov coach motorcycle passenger rail emergency" index="1" length="22.651817425696017" shape="-37.31465,-6.80445 -36.15285,-7.392149999999999 -26.572850000000003,-12.1445 -16.96235,-16.92805" speed="36.11111111111111" width="3.022973122606286"/>
		<lane allow="moped bicycle pedestrian custom1 trailer evehicle rail_urban ship private truck vip custom2 authority delivery rail_electric taxi tram army hov coach motorcycle passenger rail emergency" index="2" length="22.651817425696017" shape="-35.942099999999996,-4.09105 -34.7465,-4.69585 -25.1665,-9.4482 -15.6556,-14.168800000000001" speed="36.11111111111111" width="3.0586164927953923"/>
	</edge>
	<edge from="14" function="normal" id="3672" length="43.429643178518916" numLanes="1" priority="1" speed="36.11111111111111" spreadType="center" to="15">
		<lane allow="moped bicycle pedestrian custom1 trailer evehicle rail_urban ship private vip custom2 authority delivery rail_electric taxi tram army hov coach motorcycle passenger rail emergency" index="0" length="43.429643178518916" shape="-15.6556,-14.168800000000001 -10.4984,-16.70915 -6.9155999999999995,-18.193649999999998 -3.06975,-19.552300000000002 -0.28905,-20.5226 2.1969000000000003,-21.01945 4.431749999999999,-21.23185 6.76795,-21.11485 8.41245,-20.980449999999998 9.521899999999999,-20.7242 10.46165,-20.141199999999998 11.3809,-18.791 12.5366,-16.86265 15.204049999999999,-12.6252 16.7778,-9.57345 18.24955,-6.4613" speed="36.11111111111111" width="2.91718217634758"/>
	</edge>
	<edge from="15" function="normal" id="3456" length="24.710920579823167" numLanes="3" priority="1" speed="36.11111111111111" spreadType="center" to="16">
		<lane allow="moped bicycle pedestrian custom1 trailer evehicle rail_urban ship private truck vip custom2 authority delivery rail_electric taxi tram army hov coach motorcycle passenger bus rail emergency" index="0" length="24.710920579823167" shape="23.7762,-9.221 27.372,-2.0274 31.22535,5.8896999999999995 34.588,12.9981" speed="36.11111111111111" width="3.0476685974692224"/>
		<lane allow="moped bicycle pedestrian custom1 trailer evehicle rail_urban ship private truck vip custom2 authority delivery rail_electric taxi tram army hov coach motorcycle passenger bus rail emergency" index="1" length="24.710920579823167" shape="20.94735,-7.8267500000000005 24.80745,-0.25984999999999997 28.4857,7.30575 31.92455,14.3362" speed="36.11111111111111" width="2.9148241130469597"/>
		<lane allow="moped bicycle pedestrian custom1 trailer evehicle rail_urban ship private truck vip custom2 authority delivery rail_electric taxi tram army hov coach motorcycle passenger bus rail emergency" index="2" length="24.710920579823167" shape="18.24955,-6.4613 22.17805,1.3009 25.9665,9.00345 29.338050000000003,15.65005" speed="36.11111111111111" width="2.8880043801905835"/>
	</edge>
	<edge from="16" function="normal" id="3462" length="8.466645302154802" numLanes="3" priority="1" speed="36.11111111111111" spreadType="center" to="17">
		<lane allow="moped bicycle pedestrian custom1 trailer evehicle rail_urban ship private truck vip custom2 authority delivery rail_electric taxi tram army hov coach motorcycle passenger bus rail emergency" index="0" length="8.466645302154802" shape="34.588,12.9981 38.467299999999994,20.560850000000002" speed="36.11111111111111" width="3.0476685974692224"/>
		<lane allow="moped bicycle pedestrian custom1 trailer evehicle rail_urban ship private truck vip custom2 authority delivery rail_electric taxi tram army hov coach motorcycle passenger bus rail emergency" index="1" length="8.466645302154802" shape="31.92455,14.3362 35.74265,21.9459" speed="36.11111111111111" width="2.9148241130469597"/>
		<lane allow="moped bicycle pedestrian custom1 trailer evehicle rail_urban ship private truck vip custom2 authority delivery rail_electric taxi tram army hov coach motorcycle passenger bus rail emergency" index="2" length="8.466645302154802" shape="29.338050000000003,15.65005 33.0787,23.24555" speed="36.11111111111111" width="2.8880043801905835"/>
	</edge>
	<edge from="17" function="normal" id="3470" length="7.644506528383637" numLanes="3" priority="1" speed="36.11111111111111" spreadType="center" to="18">
		<lane allow="moped bicycle pedestrian custom1 trailer evehicle rail_urban ship private truck vip custom2 authority delivery rail_electric taxi tram army hov coach motorcycle passenger bus rail emergency" index="0" length="7.644506528383637" shape="38.467299999999994,20.560850000000002 41.8587,27.411900000000003" speed="36.11111111111111" width="3.054999162029342"/>
		<lane allow="moped bicycle pedestrian custom1 trailer evehicle rail_urban ship private truck vip custom2 authority delivery rail_electric taxi tram army hov coach motorcycle passenger bus rail emergency" index="1" length="7.644506528383637" shape="35.74265,21.9459 39.15815,28.79825" speed="36.11111111111111" width="2.9980111023810427"/>
		<lane allow="moped bicycle pedestrian custom1 trailer evehicle rail_urban ship private truck vip custom2 authority delivery rail_electric taxi tram army hov coach motorcycle passenger bus rail emergency" index="2" length="7.644506528383637" shape="33.0787,23.24555 36.48065,30.1728" speed="36.11111111111111" width="2.9350875710956195"/>
	</edge>
	<edge from="14" function="normal" id="3636" length="10.130444963203738" numLanes="2" priority="1" speed="36.11111111111111" spreadType="center" to="19">
		<lane allow="moped bicycle pedestrian custom1 trailer evehicle rail_urban ship private truck vip custom2 authority delivery rail_electric taxi tram army hov coach motorcycle passenger bus rail emergency" index="0" length="10.130444963203738" shape="-18.39315,-19.70865 -9.38205,-24.394" speed="36.11111111111111" width="3.232186618993405"/>
		<lane allow="moped bicycle pedestrian custom1 trailer evehicle rail_urban ship private truck vip custom2 authority delivery rail_electric taxi tram army hov coach motorcycle passenger bus rail emergency" index="1" length="10.130444963203738" shape="-16.96235,-16.92805 -7.93765,-21.530299999999997" speed="36.11111111111111" width="3.0254656269738045"/>
	</edge>
	<edge from="19" function="normal" id="3658" length="24.834013362889845" numLanes="2" priority="1" speed="36.11111111111111" spreadType="center" to="20">
		<lane allow="moped bicycle pedestrian custom1 trailer evehicle rail_urban ship private truck vip custom2 authority delivery rail_electric taxi tram army hov coach motorcycle passenger bus rail emergency" index="0" length="24.834013362889845" shape="-9.38205,-24.394 -6.48625,-25.899900000000002 -3.83075,-27.28065 -1.1138,-28.69335 1.8745,-30.24725 4.57615,-31.65215 7.22085,-33.0273 9.936399999999999,-34.4393 12.70815,-35.88055" speed="36.11111111111111" width="3.308908788407444"/>
		<lane allow="moped bicycle pedestrian custom1 trailer evehicle rail_urban ship private truck vip custom2 authority delivery rail_electric taxi tram army hov coach motorcycle passenger bus rail emergency" index="1" length="24.834013362889845" shape="-7.93765,-21.530299999999997 -5.06965,-22.9929 -2.39865,-24.354950000000002 0.33965,-25.7513 3.30425,-27.26305 6.0147,-28.6453 8.66465,-29.99655 11.3991,-31.39085 14.1859,-32.812" speed="36.11111111111111" width="3.1057834261261683"/>
	</edge>
	<edge from="20" function="normal" id="3676" length="16.15592838945517" numLanes="2" priority="1" speed="36.11111111111111" spreadType="center" to="5">
		<lane allow="moped bicycle pedestrian custom1 trailer evehicle rail_urban ship private truck vip custom2 authority delivery rail_electric taxi tram army hov coach motorcycle passenger bus rail emergency" index="0" length="16.15592838945517" shape="12.70815,-35.88055 18.72785,-38.8868 27.161900000000003,-43.0988" speed="36.11111111111111" width="3.503454903377516"/>
		<lane allow="moped bicycle pedestrian custom1 trailer evehicle rail_urban ship private truck vip custom2 authority delivery rail_electric taxi tram army hov coach motorcycle passenger bus rail emergency" index="1" length="16.15592838945517" shape="14.1859,-32.812 20.210549999999998,-35.7973 28.70675,-40.0072" speed="36.11111111111111" width="3.308224526842158"/>
	</edge>
	<edge from="14" function="normal" id="3600" length="24.19746751136553" numLanes="1" priority="1" speed="36.11111111111111" spreadType="center" to="9">
		<lane allow="moped bicycle pedestrian custom1 trailer evehicle rail_urban ship private vip custom2 authority delivery rail_electric taxi tram army hov coach motorcycle passenger rail emergency" index="0" length="24.19746751136553" shape="-18.39315,-19.70865 -13.90485,-22.1036 -11.911850000000001,-23.2937 -10.308800000000002,-24.2043 -9.5657,-24.68425 -9.1416,-25.27185 -9.105799999999999,-26.0788 -9.513,-27.4904 -10.3139,-29.45655 -11.29435,-31.5549 -14.087250000000001,-37.55685" speed="36.11111111111111" width="3.232186618993405"/>
	</edge>
	<edge from="21" function="normal" id="3502" length="11.53901742997741" numLanes="2" priority="1" speed="36.11111111111111" spreadType="center" to="22">
		<lane allow="moped bicycle pedestrian custom1 trailer evehicle rail_urban ship private truck vip custom2 authority delivery rail_electric taxi tram army hov coach motorcycle passenger bus rail emergency" index="0" length="11.53901742997741" shape="46.87585,-37.461600000000004 41.82615,-34.9932 36.481750000000005,-32.38065" speed="36.11111111111111" width="3.6072313177837683"/>
		<lane allow="moped bicycle pedestrian custom1 trailer evehicle rail_urban ship private truck vip custom2 authority delivery rail_electric taxi tram army hov coach motorcycle passenger bus rail emergency" index="1" length="11.53901742997741" shape="45.27125,-40.727450000000005 40.295649999999995,-38.294799999999995 34.9048,-35.65935" speed="36.11111111111111" width="3.6307914977315883"/>
	</edge>
	<edge from="22" function="normal" id="3528" length="6.5755773961303206" numLanes="3" priority="1" speed="36.11111111111111" spreadType="center" to="23">
		<lane allow="moped bicycle pedestrian custom1 trailer evehicle rail_urban ship private truck vip custom2 authority delivery rail_electric taxi tram army hov coach motorcycle passenger bus rail emergency" index="0" length="6.5755773961303206" shape="36.481750000000005,-32.38065 32.0589,-26.358800000000002" speed="36.11111111111111" width="3.245737241367512"/>
		<lane allow="moped bicycle pedestrian custom1 trailer evehicle rail_urban ship private truck vip custom2 authority delivery rail_electric taxi tram army hov coach motorcycle passenger bus rail emergency" index="1" length="6.5755773961303206" shape="36.481750000000005,-32.38065 30.56975,-29.440649999999998" speed="36.11111111111111" width="3.6024336135451542"/>
		<lane allow="moped bicycle pedestrian custom1 trailer evehicle rail_urban ship private truck vip custom2 authority delivery rail_electric taxi tram army hov coach motorcycle passenger bus rail emergency" index="2" length="6.5755773961303206" shape="34.9048,-35.65935 29.016750000000002,-32.73205" speed="36.11111111111111" width="3.671307975367902"/>
	</edge>
	<edge from="23" function="normal" id="3534" length="6.6083636571393445" numLanes="3" priority="1" speed="36.11111111111111" spreadType="center" to="24">
		<lane allow="moped bicycle pedestrian custom1 trailer evehicle rail_urban ship private truck vip custom2 authority delivery rail_electric taxi tram army hov coach motorcycle passenger bus rail emergency" index="0" length="6.6083636571393445" shape="32.0589,-26.358800000000002 26.07935,-23.46935" speed="36.11111111111111" width="3.190167196245363"/>
		<lane allow="moped bicycle pedestrian custom1 trailer evehicle rail_urban ship private truck vip custom2 authority delivery rail_electric taxi tram army hov coach motorcycle passenger bus rail emergency" index="1" length="6.6083636571393445" shape="30.56975,-29.440649999999998 24.6296,-26.4959" speed="36.11111111111111" width="3.5215687697388525"/>
		<lane allow="moped bicycle pedestrian custom1 trailer evehicle rail_urban ship private truck vip custom2 authority delivery rail_electric taxi tram army hov coach motorcycle passenger bus rail emergency" index="2" length="6.6083636571393445" shape="29.016750000000002,-32.73205 23.106699999999996,-29.775399999999998" speed="36.11111111111111" width="3.6773714878973"/>
	</edge>