<!-- generated on 2020-12-18 16:00:51.745940 by ipykernel_launcher.py v1_2_0+5214-53edc58fcd
-->
<nodes>
	<node id="1" type="from" x="28.36884" y="34.3371"/>
	<node id="2" type="to" x="24.901850000000003" y="27.35166"/>
	<node id="3" type="to" x="19.72769166666667" y="20.436083333333332"/>
	<node id="4" type="to" x="8.731475" y="-1.6598916666666668"/>
	<node id="5" type="to" x="27.934325" y="-41.553"/>
	<node id="6" type="to" x="40.77131666666667" y="-49.88608333333334"/>
	<node id="7" type="to" x="1.3994" y="-13.181833333333332"/>
	<node id="8" type="to" x="-5.9269" y="-28.076016666666664"/>
	<node id="9" type="to" x="-11.3088" y="-39.01526666666666"/>
	<node id="10" type="to" x="-28.29133333333333" y="-77.54386666666667"/>
	<node id="11" type="to" x="-11.5521" y="-3.33125"/>
	<node id="12" type="to" x="-32.26498333333333" y="3.178266666666667"/>
	<node id="13" type="from" x="-37.32763333333333" y="-6.830116666666666"/>
	<node id="14" type="to" x="-17.0037" y="-16.935166666666664"/>
	<node id="15" type="to" x="18.24955" y="-6.4613"/>
	<node id="16" type="to" x="31.950200000000006" y="14.328116666666666"/>
	<node id="17" type="to" x="35.76288333333333" y="21.917433333333335"/>
	<node id="18" type="to" x="39.16583333333333" y="28.794316666666663"/>
	<node id="19" type="to" x="-8.659849999999999" y="-22.962149999999998"/>
	<node id="20" type="to" x="13.447025" y="-34.346275"/>
	<node id="21" type="from" x="46.07355" y="-39.094525000000004"/>
	<node id="22" type="to" x="35.693275" y="-34.02"/>
	<node id="23" type="to" x="30.548466666666666" y="-29.510499999999997"/>
	<node id="24" type="to" x="24.605216666666667" y="-26.58021666666666"/>
	<node id="25" type="to" x="17.875675" y="-25.15005"/>
	<node id="26" type="to" x="-4.2117" y="-14.14415"/>
	<node id="27" type="from" x="-15.911760000000001" y="-83.64363999999999"/>
	<node id="28" type="to" x="2.7016" y="-46.38216"/>
	<node id="29" type="to" x="7.851083333333334" y="-35.308233333333334"/>
	<node id="30" type="to" x="15.2111" y="-19.932733333333335"/>
</nodes>
