<?xml version="1.0" encoding="UTF-8"?>

<!-- generated on Fri Dec 18 16:00:51 2020 by Eclipse SUMO netconvert Version 1.8.0
<configuration xmlns:xsi="http://www.w3.org/2001/XMLSchema-instance" xsi:noNamespaceSchemaLocation="http://sumo.dlr.de/xsd/netconvertConfiguration.xsd">

    <input>
        <node-files value="./converted_scenarios/NGSIM/Lankershim/USA_Lanker-1_16_I-1-1/nodes.net.xml"/>
        <edge-files value="./converted_scenarios/NGSIM/Lankershim/USA_Lanker-1_16_I-1-1/edges.net.xml"/>
        <connection-files value="./converted_scenarios/NGSIM/Lankershim/USA_Lanker-1_16_I-1-1/_connections.net.xml"/>
        <tllogic-files value="./converted_scenarios/NGSIM/Lankershim/USA_Lanker-1_16_I-1-1/_tll.net.xml"/>
    </input>

    <output>
        <output-file value="./converted_scenarios/NGSIM/Lankershim/USA_Lanker-1_16_I-1-1/USA_Lanker-1_16_I-1-1.net.xml"/>
    </output>

    <processing>
        <plain.extend-edge-shape value="true"/>
        <geometry.remove.keep-edges.explicit value="true"/>
        <geometry.avoid-overlap value="true"/>
        <offset.disable-normalization value="true"/>
    </processing>

    <junctions>
        <no-turnarounds value="true"/>
        <junctions.internal-link-detail value="20"/>
    </junctions>

    <report>
        <aggregate-warnings value="5"/>
    </report>

    <random_number>
        <seed value="1234"/>
    </random_number>

</configuration>
-->

<net version="1.6" junctionCornerDetail="5" junctionLinkDetail="20" limitTurnSpeed="5.50" xmlns:xsi="http://www.w3.org/2001/XMLSchema-instance" xsi:noNamespaceSchemaLocation="http://sumo.dlr.de/xsd/net_file.xsd">

    <location netOffset="0.00,0.00" convBoundary="-37.33,-83.64,46.07,34.34" origBoundary="-38.73,-86.37,46.88,37.09" projParameter="!"/>

    <edge id=":11_0" function="internal">
        <lane id=":11_0_0" index="0" disallow="bus truck rail_fast" speed="36.11" length="8.30" width="4.58" shape="-18.66,-1.02 -10.81,-3.69"/>
    </edge>
    <edge id=":11_1" function="internal">
        <lane id=":11_1_0" index="0" disallow="rail_fast" speed="36.11" length="1.01" width="3.11" shape="-11.72,-8.55 -12.65,-8.12"/>
        <lane id=":11_1_1" index="1" disallow="rail_fast" speed="36.11" length="1.01" width="3.66" shape="-13.04,-11.69 -13.95,-11.26"/>
    </edge>
    <edge id=":14_0" function="internal">
        <lane id=":14_0_0" index="0" disallow="bus truck rail_fast" speed="7.94" length="13.70" width="3.23" shape="-20.07,-18.87 -18.85,-19.49 -17.70,-20.07 -16.62,-20.64 -15.60,-21.17 -14.66,-21.68 -13.79,-22.17 -12.99,-22.63 -12.25,-23.06 -11.59,-23.47 -10.99,-23.86 -10.47,-24.21 -10.02,-24.55 -9.63,-24.86 -9.31,-25.14 -9.07,-25.40 -8.89,-25.63 -8.78,-25.83 -8.75,-26.02 -8.78,-26.17"/>
    </edge>
    <edge id=":14_1" function="internal">
        <lane id=":14_1_0" index="0" disallow="rail_fast" speed="36.11" length="13.45" width="3.23" shape="-20.07,-18.87 -8.14,-25.04"/>
        <lane id=":14_1_1" index="1" disallow="bus rail_fast" speed="36.11" length="13.45" width="3.03" shape="-18.68,-16.07 -6.67,-22.18"/>
    </edge>
    <edge id=":14_3" function="internal">
        <lane id=":14_3_0" index="0" disallow="bus truck rail_fast" speed="36.11" length="2.11" width="2.92" shape="-17.33,-13.34 -19.22,-12.41"/>
    </edge>
    <edge id=":15_0" function="internal">
        <lane id=":15_0_0" index="0" disallow="bus truck rail_fast" speed="9.12" length="13.80" width="3.05" shape="23.40,-21.31 23.03,-20.89 22.71,-20.43 22.44,-19.95 22.21,-19.43 22.02,-18.89 21.88,-18.33 21.79,-17.73 21.74,-17.10 21.73,-16.45 21.78,-15.77 21.86,-15.06 22.00,-14.32 22.18,-13.55 22.40,-12.76 22.67,-11.94 22.99,-11.09 23.35,-10.21 23.75,-9.30 24.21,-8.36"/>
    </edge>
    <edge id=":15_1" function="internal">
        <lane id=":15_1_0" index="0" disallow="rail_fast" speed="36.11" length="13.06" width="3.05" shape="18.56,-20.09 24.21,-8.36"/>
        <lane id=":15_1_1" index="1" disallow="rail_fast" speed="36.11" length="13.06" width="2.91" shape="15.75,-18.74 21.39,-6.95"/>
        <lane id=":15_1_2" index="2" disallow="rail_fast" speed="36.11" length="13.06" width="2.89" shape="13.02,-17.42 18.69,-5.60"/>
    </edge>
    <edge id=":15_4" function="internal">
        <lane id=":15_4_0" index="0" disallow="bus truck rail_fast" speed="36.11" length="13.55" width="2.89" shape="12.17,-17.48 18.69,-5.60"/>
    </edge>
    <edge id=":16_0" function="internal">
        <lane id=":16_0_0" index="0" disallow="rail_fast" speed="36.11" length="0.24" width="3.05" shape="34.54,12.89 34.64,13.10"/>
        <lane id=":16_0_1" index="1" disallow="rail_fast" speed="36.11" length="0.24" width="2.91" shape="31.87,14.23 31.98,14.44"/>
        <lane id=":16_0_2" index="2" disallow="rail_fast" speed="36.11" length="0.24" width="2.89" shape="29.27,15.53 29.39,15.75"/>
    </edge>
    <edge id=":17_0" function="internal">
        <lane id=":17_0_0" index="0" disallow="rail_fast" speed="36.11" length="3.05" width="3.05" shape="37.76,19.18 39.13,21.90"/>
        <lane id=":17_0_1" index="1" disallow="rail_fast" speed="36.11" length="3.05" width="3.00" shape="35.04,20.54 36.40,23.26"/>
        <lane id=":17_0_2" index="2" disallow="rail_fast" speed="36.11" length="3.05" width="2.94" shape="32.39,21.86 33.74,24.58"/>
    </edge>
    <edge id=":19_0" function="internal">
        <lane id=":19_0_0" index="0" disallow="rail_fast" speed="36.11" length="0.12" width="3.31" shape="-7.96,-25.13 -8.06,-25.08"/>
        <lane id=":19_0_1" index="1" disallow="rail_fast" speed="36.11" length="0.12" width="3.11" shape="-6.49,-22.27 -6.60,-22.21"/>
    </edge>
    <edge id=":2_0" function="internal">
        <lane id=":2_0_0" index="0" disallow="rail_fast" speed="21.97" length="7.43" width="2.94" shape="20.65,32.43 20.40,31.93 20.16,31.48 19.94,31.09 19.73,30.73 19.53,30.41 19.33,30.12 19.14,29.86 18.95,29.61 18.75,29.38 18.55,29.16 18.33,28.95 18.11,28.73 17.86,28.51 17.60,28.27 17.31,28.01 17.00,27.73 16.66,27.43 16.28,27.08 15.87,26.70"/>
        <lane id=":2_0_1" index="1" disallow="rail_fast" speed="36.11" length="7.43" width="2.94" shape="20.65,32.43 17.34,25.87"/>
        <lane id=":2_0_2" index="2" disallow="rail_fast" speed="36.11" length="7.43" width="3.05" shape="23.32,31.08 19.99,24.37"/>
        <lane id=":2_0_3" index="3" disallow="rail_fast" speed="36.11" length="7.43" width="3.03" shape="26.05,29.70 22.64,22.86"/>
        <lane id=":2_0_4" index="4" disallow="rail_fast" speed="36.11" length="7.43" width="3.05" shape="28.78,28.33 25.30,21.35"/>
        <lane id=":2_0_5" index="5" disallow="rail_fast" speed="36.11" length="7.43" width="3.12" shape="31.52,26.94 28.53,20.87"/>
    </edge>
    <edge id=":20_0" function="internal">
        <lane id=":20_0_0" index="0" disallow="rail_fast" speed="36.11" length="3.06" width="3.50" shape="11.31,-35.15 14.04,-36.55"/>
        <lane id=":20_0_1" index="1" disallow="rail_fast" speed="36.11" length="3.06" width="3.31" shape="12.82,-32.12 15.54,-33.49"/>
    </edge>
    <edge id=":22_0" function="internal">
        <lane id=":22_0_0" index="0" disallow="rail_fast" speed="14.45" length="8.28" width="3.25" shape="40.13,-34.16 39.59,-33.90 39.10,-33.65 38.66,-33.43 38.26,-33.22 37.89,-33.02 37.57,-32.82 37.26,-32.63 36.98,-32.43 36.72,-32.23 36.47,-32.02 36.23,-31.79 36.00,-31.55 35.75,-31.28 35.51,-30.99 35.25,-30.67 34.97,-30.31 34.67,-29.91 34.35,-29.47 33.99,-28.99"/>
        <lane id=":22_0_1" index="1" disallow="rail_fast" speed="36.11" length="8.28" width="3.60" shape="40.13,-34.16 32.90,-30.60"/>
        <lane id=":22_0_2" index="2" disallow="rail_fast" speed="36.11" length="8.28" width="3.67" shape="38.54,-37.44 30.84,-33.64"/>
    </edge>
    <edge id=":23_0" function="internal">
        <lane id=":23_0_0" index="0" disallow="rail_fast" speed="9.74" length="3.41" width="3.19" shape="32.65,-27.17 32.49,-26.95 32.34,-26.76 32.19,-26.59 32.05,-26.45 31.92,-26.32 31.79,-26.21 31.67,-26.11 31.54,-26.03 31.41,-25.96 31.28,-25.89 31.14,-25.82 30.99,-25.76 30.84,-25.70 30.67,-25.63 30.49,-25.56 30.30,-25.49 30.09,-25.40 29.86,-25.30 29.62,-25.18"/>
        <lane id=":23_0_1" index="1" disallow="rail_fast" speed="36.11" length="3.41" width="3.52" shape="31.18,-29.74 28.14,-28.24"/>
        <lane id=":23_0_2" index="2" disallow="rail_fast" speed="36.11" length="3.41" width="3.68" shape="29.37,-32.91 26.57,-31.51"/>
    </edge>
    <edge id=":24_0" function="internal">
        <lane id=":24_0_0" index="0" disallow="bus truck rail_fast" speed="14.27" length="3.68" width="2.93" shape="26.99,-23.91 26.75,-23.79 26.52,-23.69 26.32,-23.59 26.13,-23.51 25.96,-23.43 25.81,-23.36 25.66,-23.29 25.52,-23.21 25.39,-23.14 25.27,-23.07 25.14,-22.99 25.02,-22.90 24.89,-22.80 24.76,-22.69 24.63,-22.57 24.48,-22.43 24.32,-22.27 24.15,-22.10 23.96,-21.90"/>
    </edge>
    <edge id=":24_1" function="internal">
        <lane id=":24_1_0" index="0" disallow="rail_fast" speed="36.11" length="11.27" width="3.46" shape="25.54,-26.95 15.45,-21.95"/>
        <lane id=":24_1_1" index="1" disallow="rail_fast" speed="36.11" length="11.27" width="3.70" shape="23.98,-30.21 13.90,-25.16"/>
    </edge>
    <edge id=":24_3" function="internal">
        <lane id=":24_3_0" index="0" disallow="bus truck rail_fast" speed="17.55" length="16.88" width="3.01" shape="23.98,-30.21 22.84,-29.66 21.75,-29.16 20.71,-28.71 19.72,-28.32 18.78,-27.97 17.87,-27.68 16.99,-27.42 16.15,-27.21 15.33,-27.04 14.54,-26.91 13.76,-26.80 13.00,-26.73 12.25,-26.69 11.50,-26.68 10.76,-26.68 10.01,-26.71 9.26,-26.76 8.50,-26.82 7.72,-26.90"/>
    </edge>
    <edge id=":25_0" function="internal">
        <lane id=":25_0_0" index="0" disallow="rail_fast" speed="36.11" length="2.24" width="3.21" shape="15.27,-21.87 17.28,-22.86"/>
        <lane id=":25_0_1" index="1" disallow="rail_fast" speed="36.11" length="2.24" width="3.68" shape="13.72,-25.07 15.71,-26.07"/>
    </edge>
    <edge id=":26_0" function="internal">
        <lane id=":26_0_0" index="0" disallow="rail_fast" speed="36.11" length="14.96" width="3.17" shape="7.61,-18.07 -5.80,-11.45"/>
        <lane id=":26_0_1" index="1" disallow="rail_fast" speed="36.11" length="14.96" width="3.68" shape="6.04,-21.22 -7.33,-14.52"/>
    </edge>
    <edge id=":26_2" function="internal">
        <lane id=":26_2_0" index="0" disallow="bus truck rail_fast" speed="11.28" length="15.17" width="3.68" shape="1.51,-26.10 1.35,-25.28 1.15,-24.49 0.92,-23.72 0.66,-22.97 0.36,-22.24 0.03,-21.54 -0.33,-20.86 -0.73,-20.20 -1.16,-19.57 -1.63,-18.96 -2.13,-18.38 -2.66,-17.81 -3.22,-17.27 -3.82,-16.76 -4.46,-16.26 -5.13,-15.79 -5.83,-15.35 -6.56,-14.92 -7.33,-14.52"/>
    </edge>
    <edge id=":28_0" function="internal">
        <lane id=":28_0_0" index="0" disallow="bus truck rail_fast" speed="10.22" length="10.24" width="3.11" shape="7.50,-51.17 7.74,-50.77 7.99,-50.38 8.27,-50.00 8.58,-49.64 8.90,-49.29 9.25,-48.95 9.62,-48.63 10.01,-48.31 10.43,-48.01 10.87,-47.73 11.33,-47.46 11.81,-47.20 12.32,-46.95 12.85,-46.71 13.40,-46.49 13.97,-46.28 14.57,-46.09 15.18,-45.91 15.83,-45.74"/>
    </edge>
    <edge id=":28_1" function="internal">
        <lane id=":28_1_0" index="0" disallow="bus truck rail_fast" speed="11.58" length="11.05" width="3.13" shape="4.45,-49.57 4.81,-48.86 5.15,-48.22 5.48,-47.65 5.80,-47.14 6.12,-46.69 6.43,-46.29 6.75,-45.93 7.09,-45.61 7.43,-45.33 7.80,-45.06 8.18,-44.82 8.60,-44.60 9.05,-44.38 9.54,-44.16 10.07,-43.94 10.64,-43.71 11.27,-43.46 11.96,-43.19 12.70,-42.90"/>
    </edge>
    <edge id=":28_2" function="internal">
        <lane id=":28_2_0" index="0" disallow="rail_fast" speed="36.11" length="10.45" width="3.12" shape="4.45,-49.57 9.01,-40.01"/>
        <lane id=":28_2_1" index="1" disallow="rail_fast" speed="36.11" length="10.45" width="3.06" shape="1.71,-48.13 6.22,-38.70"/>
        <lane id=":28_2_2" index="2" disallow="rail_fast" speed="36.11" length="10.45" width="2.98" shape="-0.98,-46.71 3.48,-37.41"/>
    </edge>
    <edge id=":28_5" function="internal">
        <lane id=":28_5_0" index="0" disallow="bus truck rail_fast" speed="36.11" length="10.20" width="2.87" shape="-3.67,-45.30 -3.33,-44.62 -3.02,-44.00 -2.74,-43.44 -2.49,-42.93 -2.26,-42.46 -2.05,-42.03 -1.85,-41.63 -1.67,-41.25 -1.49,-40.87 -1.33,-40.50 -1.16,-40.12 -1.00,-39.73 -0.83,-39.32 -0.66,-38.88 -0.48,-38.40 -0.29,-37.88 -0.08,-37.30 0.15,-36.66 0.39,-35.96"/>
    </edge>
    <edge id=":29_0" function="internal">
        <lane id=":29_0_0" index="0" disallow="rail_fast" speed="36.11" length="3.22" width="3.12" shape="9.89,-38.15 11.28,-35.25"/>
        <lane id=":29_0_1" index="1" disallow="rail_fast" speed="36.11" length="3.22" width="3.06" shape="7.14,-36.75 8.52,-33.85"/>
        <lane id=":29_0_2" index="2" disallow="rail_fast" speed="36.11" length="3.22" width="2.95" shape="4.44,-35.39 5.83,-32.48"/>
    </edge>
    <edge id=":3_0" function="internal">
        <lane id=":3_0_0" index="0" disallow="rail_fast" speed="15.71" length="3.50" width="3.22" shape="15.49,26.34 15.29,26.16 15.10,25.99 14.91,25.85 14.75,25.73 14.59,25.62 14.43,25.53 14.29,25.44 14.15,25.35 14.02,25.27 13.90,25.19 13.77,25.10 13.65,25.00 13.54,24.89 13.42,24.77 13.30,24.63 13.18,24.47 13.06,24.29 12.93,24.07 12.81,23.83"/>
        <lane id=":3_0_1" index="1" disallow="rail_fast" speed="36.11" length="3.50" width="2.87" shape="17.15,25.49 15.63,22.47"/>
        <lane id=":3_0_2" index="2" disallow="rail_fast" speed="36.11" length="3.50" width="3.00" shape="19.85,24.10 18.38,21.14"/>
        <lane id=":3_0_3" index="3" disallow="rail_fast" speed="36.11" length="3.50" width="3.02" shape="22.56,22.70 21.11,19.79"/>
        <lane id=":3_0_4" index="4" disallow="rail_fast" speed="36.11" length="3.50" width="3.02" shape="25.26,21.26 23.83,18.41"/>
        <lane id=":3_0_5" index="5" disallow="rail_fast" speed="36.11" length="3.50" width="3.03" shape="28.44,20.69 26.62,17.00"/>
    </edge>
    <edge id=":30_0" function="internal">
        <lane id=":30_0_0" index="0" disallow="rail_fast" speed="36.11" length="2.64" width="3.14" shape="17.33,-22.66 18.48,-20.27"/>
        <lane id=":30_0_1" index="1" disallow="rail_fast" speed="36.11" length="2.64" width="3.10" shape="14.52,-21.30 15.66,-18.92"/>
        <lane id=":30_0_2" index="2" disallow="rail_fast" speed="36.11" length="2.64" width="2.93" shape="11.80,-19.98 12.93,-17.60"/>
    </edge>
    <edge id=":4_0" function="internal">
        <lane id=":4_0_0" index="0" disallow="bus truck rail_fast" speed="36.11" length="5.96" width="3.84" shape="3.54,5.41 3.34,5.02 3.16,4.66 3.00,4.33 2.85,4.04 2.72,3.77 2.59,3.52 2.48,3.29 2.36,3.07 2.25,2.86 2.13,2.65 2.01,2.45 1.88,2.24 1.73,2.02 1.58,1.80 1.40,1.56 1.20,1.29 0.98,1.01 0.73,0.69 0.45,0.35"/>
    </edge>
    <edge id=":4_1" function="internal">
        <lane id=":4_1_0" index="0" disallow="rail_fast" speed="36.11" length="6.33" width="2.87" shape="6.50,3.91 3.65,-1.78"/>
        <lane id=":4_1_1" index="1" disallow="rail_fast" speed="36.11" length="6.33" width="3.02" shape="9.15,2.55 6.31,-3.10"/>
        <lane id=":4_1_2" index="2" disallow="rail_fast" speed="36.11" length="6.33" width="3.12" shape="11.88,1.16 9.09,-4.48"/>
    </edge>
    <edge id=":4_4" function="internal">
        <lane id=":4_4_0" index="0" disallow="bus truck rail_fast" speed="36.11" length="6.26" width="2.93" shape="14.62,-0.24 11.83,-5.84"/>
    </edge>
    <edge id=":4_5" function="internal">
        <lane id=":4_5_0" index="0" disallow="bus truck rail_fast" speed="36.11" length="6.22" width="3.03" shape="17.34,-1.62 14.56,-7.19"/>
    </edge>
    <edge id=":5_0" function="internal">
        <lane id=":5_0_0" index="0" disallow="bus truck rail_fast" speed="10.83" length="9.96" width="3.88" shape="16.68,-45.52 17.32,-45.36 17.90,-45.22 18.44,-45.10 18.93,-45.00 19.38,-44.91 19.80,-44.85 20.20,-44.81 20.59,-44.79 20.96,-44.80 21.32,-44.83 21.69,-44.89 22.06,-44.97 22.44,-45.08 22.84,-45.21 23.27,-45.38 23.73,-45.57 24.23,-45.80 24.77,-46.05 25.36,-46.34"/>
        <lane id=":5_0_1" index="1" disallow="bus truck rail_fast" speed="12.01" length="9.96" width="3.51" shape="16.55,-41.96 17.32,-41.78 18.03,-41.62 18.67,-41.48 19.26,-41.36 19.81,-41.27 20.32,-41.20 20.80,-41.16 21.26,-41.14 21.70,-41.15 22.14,-41.19 22.58,-41.26 23.03,-41.36 23.49,-41.49 23.97,-41.66 24.48,-41.86 25.04,-42.09 25.63,-42.36 26.28,-42.67 27.00,-43.02"/>
    </edge>
    <edge id=":5_2" function="internal">
        <lane id=":5_2_0" index="0" disallow="bus truck rail_fast" speed="36.11" length="10.89" width="3.51" shape="17.34,-37.92 27.00,-43.02"/>
        <lane id=":5_2_1" index="1" disallow="bus truck rail_fast" speed="36.11" length="10.89" width="3.38" shape="19.08,-34.59 19.74,-35.06 20.34,-35.48 20.89,-35.86 21.38,-36.19 21.84,-36.49 22.27,-36.76 22.67,-37.00 23.06,-37.23 23.44,-37.44 23.82,-37.64 24.21,-37.84 24.61,-38.04 25.04,-38.24 25.50,-38.46 25.99,-38.70 26.54,-38.96 27.13,-39.24 27.79,-39.56 28.52,-39.92"/>
    </edge>
    <edge id=":5_4" function="internal">
        <lane id=":5_4_0" index="0" disallow="rail_fast" speed="36.11" length="13.99" width="3.51" shape="14.47,-36.76 27.00,-43.02"/>
        <lane id=":5_4_1" index="1" disallow="rail_fast" speed="36.11" length="13.99" width="3.38" shape="15.99,-33.71 28.52,-39.92"/>
    </edge>
    <edge id=":7_0" function="internal">
        <lane id=":7_0_0" index="0" disallow="rail_fast" speed="36.11" length="3.02" width="3.06" shape="-0.66,-10.48 -2.00,-13.19"/>
        <lane id=":7_0_1" index="1" disallow="rail_fast" speed="36.11" length="3.02" width="2.99" shape="2.06,-11.81 0.73,-14.53"/>
        <lane id=":7_0_2" index="2" disallow="rail_fast" speed="36.11" length="3.02" width="3.06" shape="4.82,-13.16 3.48,-15.88"/>
    </edge>
    <edge id=":8_0" function="internal">
        <lane id=":8_0_0" index="0" disallow="rail_fast" speed="36.11" length="0.10" width="3.29" shape="-7.98,-25.24 -7.99,-25.27"/>
        <lane id=":8_0_1" index="1" disallow="rail_fast" speed="36.11" length="0.10" width="2.97" shape="-5.20,-26.67 -5.21,-26.70"/>
        <lane id=":8_0_2" index="2" disallow="rail_fast" speed="36.11" length="0.10" width="3.01" shape="-2.50,-28.05 -2.52,-28.08"/>
    </edge>
    <edge id=":9_0" function="internal">
        <lane id=":9_0_0" index="0" disallow="bus rail_fast" speed="36.11" length="15.32" width="2.85" shape="-8.08,-25.44 -14.88,-39.18"/>
        <lane id=":9_0_1" index="1" disallow="rail_fast" speed="36.11" length="15.32" width="2.97" shape="-5.30,-26.88 -12.03,-40.64"/>
        <lane id=":9_0_2" index="2" disallow="rail_fast" speed="36.11" length="15.32" width="2.96" shape="-2.61,-28.26 -9.36,-42.01"/>
    </edge>
    <edge id=":9_3" function="internal">
        <lane id=":9_3_0" index="0" disallow="bus truck rail_fast" speed="14.99" length="18.43" width="2.96" shape="1.93,-27.96 1.22,-28.28 0.53,-28.64 -0.13,-29.04 -0.76,-29.47 -1.38,-29.95 -1.98,-30.47 -2.56,-31.04 -3.13,-31.65 -3.69,-32.32 -4.24,-33.03 -4.79,-33.80 -5.34,-34.61 -5.89,-35.49 -6.44,-36.42 -7.00,-37.41 -7.57,-38.47 -8.15,-39.58 -8.74,-40.76 -9.36,-42.01"/>
    </edge>
    <edge id=":9_4" function="internal">
        <lane id=":9_4_0" index="0" disallow="bus truck rail_fast" speed="36.11" length="14.16" width="2.85" shape="-8.86,-26.35 -14.88,-39.18"/>
    </edge>

    <edge id="3431" from="1" to="2" priority="1" spreadType="center" length="7.75">
        <lane id="3431_0" index="0" disallow="rail_fast" speed="36.11" length="7.75" width="2.84" customShape="1" shape="22.96,36.99 20.65,32.43"/>
        <lane id="3431_1" index="1" disallow="rail_fast" speed="36.11" length="7.75" width="3.06" customShape="1" shape="25.64,35.74 23.32,31.08"/>
        <lane id="3431_2" index="2" disallow="rail_fast" speed="36.11" length="7.75" width="3.03" customShape="1" shape="28.35,34.35 26.05,29.70"/>
        <lane id="3431_3" index="3" disallow="rail_fast" speed="36.11" length="7.75" width="3.05" customShape="1" shape="31.09,33.00 28.78,28.33"/>
        <lane id="3431_4" index="4" disallow="rail_fast" speed="36.11" length="7.75" width="3.05" customShape="1" shape="33.84,31.65 31.52,26.94"/>
    </edge>
    <edge id="3438" from="2" to="3" priority="1" spreadType="center" length="8.44">
        <lane id="3438_0" index="0" disallow="rail_fast" speed="36.11" length="8.44" width="2.94" customShape="1" shape="15.87,26.70 15.49,26.34"/>
        <lane id="3438_1" index="1" disallow="rail_fast" speed="36.11" length="8.44" width="2.94" customShape="1" shape="17.34,25.87 17.15,25.49"/>
        <lane id="3438_2" index="2" disallow="rail_fast" speed="36.11" length="8.44" width="3.05" customShape="1" shape="19.99,24.37 19.85,24.10"/>
        <lane id="3438_3" index="3" disallow="rail_fast" speed="36.11" length="8.44" width="3.03" customShape="1" shape="22.64,22.86 22.56,22.70"/>
        <lane id="3438_4" index="4" disallow="rail_fast" speed="36.11" length="8.44" width="3.05" customShape="1" shape="25.30,21.35 25.26,21.26"/>
        <lane id="3438_5" index="5" disallow="rail_fast" speed="36.11" length="8.44" width="3.12" customShape="1" shape="28.53,20.87 28.44,20.69"/>
    </edge>
    <edge id="3450" from="3" to="4" priority="1" spreadType="center" length="24.49">
        <lane id="3450_0" index="0" disallow="rail_fast" speed="36.11" length="24.49" width="3.22" customShape="1" shape="12.81,23.83 9.63,17.57 5.84,9.88 3.54,5.41"/>
        <lane id="3450_1" index="1" disallow="rail_fast" speed="36.11" length="24.49" width="2.87" customShape="1" shape="15.63,22.47 12.62,16.42 8.80,8.47 6.50,3.91"/>
        <lane id="3450_2" index="2" disallow="rail_fast" speed="36.11" length="24.49" width="3.00" customShape="1" shape="18.38,21.14 15.36,15.09 11.50,7.14 9.15,2.55"/>
        <lane id="3450_3" index="3" disallow="rail_fast" speed="36.11" length="24.49" width="3.02" customShape="1" shape="21.11,19.79 18.03,13.64 14.14,5.69 11.88,1.16"/>
        <lane id="3450_4" index="4" disallow="rail_fast" speed="36.11" length="24.49" width="3.02" customShape="1" shape="23.83,18.41 20.71,12.18 16.83,4.23 14.62,-0.24"/>
        <lane id="3450_5" index="5" disallow="rail_fast" speed="36.11" length="24.49" width="3.03" customShape="1" shape="26.62,17.00 23.41,10.67 19.52,2.73 17.34,-1.62"/>
    </edge>
    <edge id="3456" from="15" to="16" priority="1" spreadType="center" length="24.71">
        <lane id="3456_0" index="0" disallow="rail_fast" speed="36.11" length="24.71" width="3.05" customShape="1" shape="24.21,-8.36 27.37,-2.03 31.23,5.89 34.54,12.89"/>
        <lane id="3456_1" index="1" disallow="rail_fast" speed="36.11" length="24.71" width="2.91" customShape="1" shape="21.39,-6.95 24.81,-0.26 28.49,7.31 31.87,14.23"/>
        <lane id="3456_2" index="2" disallow="rail_fast" speed="36.11" length="24.71" width="2.89" customShape="1" shape="18.69,-5.60 22.18,1.30 25.97,9.00 29.27,15.53"/>
    </edge>
    <edge id="3462" from="16" to="17" priority="1" spreadType="center" length="8.47">
        <lane id="3462_0" index="0" disallow="rail_fast" speed="36.11" length="8.47" width="3.05" customShape="1" shape="34.64,13.10 37.76,19.18"/>
        <lane id="3462_1" index="1" disallow="rail_fast" speed="36.11" length="8.47" width="2.91" customShape="1" shape="31.98,14.44 35.04,20.54"/>
        <lane id="3462_2" index="2" disallow="rail_fast" speed="36.11" length="8.47" width="2.89" customShape="1" shape="29.39,15.75 32.39,21.86"/>
    </edge>
    <edge id="3470" from="17" to="18" priority="1" spreadType="center" length="7.64">
        <lane id="3470_0" index="0" disallow="rail_fast" speed="36.11" length="7.64" width="3.05" customShape="1" shape="39.13,21.90 41.88,27.45"/>
        <lane id="3470_1" index="1" disallow="rail_fast" speed="36.11" length="7.64" width="3.00" customShape="1" shape="36.40,23.26 39.16,28.80"/>
        <lane id="3470_2" index="2" disallow="rail_fast" speed="36.11" length="7.64" width="2.94" customShape="1" shape="33.74,24.58 36.48,30.17"/>
    </edge>
    <edge id="3479" from="13" to="14" priority="1" spreadType="center" length="22.65">
        <lane id="3479_0" index="0" disallow="rail_fast" speed="36.11" length="22.65" width="3.23" customShape="1" shape="-38.73,-9.59 -37.58,-10.17 -28.00,-14.93 -20.07,-18.87"/>
        <lane id="3479_1" index="1" disallow="bus rail_fast" speed="36.11" length="22.65" width="3.02" customShape="1" shape="-37.31,-6.80 -36.15,-7.39 -26.57,-12.14 -18.68,-16.07"/>
        <lane id="3479_2" index="2" disallow="bus rail_fast" speed="36.11" length="22.65" width="3.06" customShape="1" shape="-35.94,-4.09 -34.75,-4.70 -25.17,-9.45 -17.33,-13.34"/>
    </edge>
    <edge id="3487" from="11" to="12" priority="1" spreadType="center" length="21.43">
        <lane id="3487_0" index="0" disallow="rail_fast" speed="36.11" length="21.43" width="4.58" acceleration="1" customShape="1" shape="-10.81,-3.69 -20.77,1.11 -29.60,5.93 -30.49,6.41"/>
        <lane id="3487_1" index="1" disallow="rail_fast" speed="36.11" length="21.43" width="3.11" customShape="1" shape="-12.65,-8.12 -22.66,-2.74 -31.31,2.43 -32.34,3.05"/>
        <lane id="3487_2" index="2" disallow="rail_fast" speed="36.11" length="21.43" width="3.66" customShape="1" shape="-13.95,-11.26 -24.19,-5.77 -32.83,-0.60 -33.96,0.08"/>
    </edge>
    <edge id="3495" from="5" to="6" priority="1" spreadType="center" length="15.18">
        <lane id="3495_0" index="0" disallow="rail_fast" speed="36.11" length="15.18" width="3.88" customShape="1" shape="25.36,-46.34 34.27,-50.72 39.17,-53.14"/>
        <lane id="3495_1" index="1" disallow="rail_fast" speed="36.11" length="15.18" width="3.51" customShape="1" shape="27.00,-43.02 35.89,-47.39 40.81,-49.81"/>
        <lane id="3495_2" index="2" disallow="rail_fast" speed="36.11" length="15.18" width="3.38" customShape="1" shape="28.52,-39.92 37.39,-44.28 42.33,-46.71"/>
    </edge>
    <edge id="3502" from="21" to="22" priority="1" spreadType="center" length="11.54">
        <lane id="3502_0" index="0" disallow="rail_fast" speed="36.11" length="11.54" width="3.61" customShape="1" shape="46.88,-37.46 41.83,-34.99 40.13,-34.16"/>
        <lane id="3502_1" index="1" disallow="rail_fast" speed="36.11" length="11.54" width="3.63" customShape="1" shape="45.27,-40.73 40.30,-38.29 38.54,-37.44"/>
    </edge>
    <edge id="3528" from="22" to="23" priority="1" spreadType="center" length="6.58">
        <lane id="3528_0" index="0" disallow="rail_fast" speed="36.11" length="6.58" width="3.25" customShape="1" shape="33.99,-28.99 32.65,-27.17"/>
        <lane id="3528_1" index="1" disallow="rail_fast" speed="36.11" length="6.58" width="3.60" customShape="1" shape="32.90,-30.60 31.18,-29.74"/>
        <lane id="3528_2" index="2" disallow="rail_fast" speed="36.11" length="6.58" width="3.67" customShape="1" shape="30.84,-33.64 29.37,-32.91"/>
    </edge>
    <edge id="3534" from="23" to="24" priority="1" spreadType="center" length="6.61">
        <lane id="3534_0" index="0" disallow="rail_fast" speed="36.11" length="6.61" width="3.19" customShape="1" shape="29.62,-25.18 26.99,-23.91"/>
        <lane id="3534_1" index="1" disallow="rail_fast" speed="36.11" length="6.61" width="3.52" customShape="1" shape="28.14,-28.24 25.54,-26.95"/>
        <lane id="3534_2" index="2" disallow="rail_fast" speed="36.11" length="6.61" width="3.68" customShape="1" shape="26.57,-31.51 23.98,-30.21"/>
    </edge>
    <edge id="3542" from="9" to="10" priority="1" spreadType="center" length="42.05">
        <lane id="3542_0" index="0" disallow="bus rail_fast" speed="36.11" length="42.05" width="2.85" customShape="1" shape="-14.88,-39.18 -18.25,-46.10 -22.30,-55.03 -26.07,-63.74 -29.70,-72.99 -31.10,-76.39"/>
        <lane id="3542_1" index="1" disallow="rail_fast" speed="36.11" length="42.05" width="2.97" customShape="1" shape="-12.03,-40.64 -15.49,-47.60 -19.57,-56.39 -23.31,-65.08 -26.96,-74.20 -28.31,-77.54"/>
        <lane id="3542_2" index="2" disallow="rail_fast" speed="36.11" length="42.05" width="2.96" customShape="1" shape="-9.36,-42.01 -12.82,-49.12 -16.87,-57.84 -20.64,-66.53 -24.14,-75.33 -25.47,-78.70"/>
    </edge>
    <edge id="3573" from="27" to="28" priority="1" spreadType="center" length="41.48">
        <lane id="3573_0" index="0" disallow="rail_fast" speed="36.11" length="41.48" width="3.35" customShape="1" shape="-10.37,-86.37 -8.72,-83.04 -4.46,-74.46 -0.02,-65.53 4.28,-57.07 7.50,-51.17"/>
        <lane id="3573_1" index="1" disallow="rail_fast" speed="36.11" length="41.48" width="2.88" customShape="1" shape="-13.23,-84.96 -11.49,-81.47 -7.29,-73.10 -2.76,-64.03 1.46,-55.60 4.45,-49.57"/>
        <lane id="3573_2" index="2" disallow="rail_fast" speed="36.11" length="41.48" width="3.08" customShape="1" shape="-15.95,-83.62 -14.18,-80.07 -9.98,-71.70 -5.45,-62.63 -1.23,-54.20 1.71,-48.13"/>
        <lane id="3573_3" index="3" disallow="rail_fast" speed="36.11" length="41.48" width="2.82" customShape="1" shape="-18.64,-82.30 -16.85,-78.71 -12.66,-70.34 -8.12,-61.27 -3.95,-52.80 -0.98,-46.71"/>
        <lane id="3573_4" index="4" disallow="rail_fast" speed="36.11" length="41.48" width="3.05" customShape="1" shape="-21.36,-80.97 -19.55,-77.29 -15.36,-68.91 -10.82,-59.85 -6.65,-51.37 -3.67,-45.30"/>
    </edge>
    <edge id="3600" from="14" to="9" priority="1" spreadType="center" length="24.20">
        <lane id="3600_0" index="0" disallow="bus truck rail_fast" speed="36.11" length="24.20" width="3.23" customShape="1" shape="-8.78,-26.17 -8.86,-26.35"/>
    </edge>
    <edge id="3602" from="24" to="15" priority="1" spreadType="center" length="16.41">
        <lane id="3602_0" index="0" disallow="bus truck rail_fast" speed="36.11" length="16.41" width="2.93" customShape="1" shape="23.96,-21.90 23.40,-21.31"/>
    </edge>
    <edge id="3604" from="4" to="11" priority="1" spreadType="center" length="15.84">
        <lane id="3604_0" index="0" disallow="bus truck rail_fast" speed="36.11" length="15.84" width="3.84" customShape="1" shape="0.45,0.35 -0.55,-0.89 -1.94,-2.29 -3.82,-3.52 -5.52,-4.11 -7.31,-4.30 -9.24,-4.08 -18.66,-1.02"/>
    </edge>