<routes>
	<vehicle depart="0.1" departLane="0" departPos="61.15492008634282" departSpeed="0.0" id="349" type="bus">
		<route edges="1115 1069"/>
	</vehicle>
	<vehicle depart="0.1" departLane="0" departPos="23.95675553565335" departSpeed="9.4956192" id="341" type="passenger">
		<route edges=":66_4 1118 1121"/>
	</vehicle>
	<vehicle depart="0.1" departLane="0" departPos="57.375771916871344" departSpeed="8.9840497" id="352" type="passenger">
		<route edges="1070 1114"/>
	</vehicle>
	<vehicle depart="0.1" departLane="0" departPos="46.86319425052635" departSpeed="0.0017871959" id="356" type="passenger">
		<route edges="1115 1069"/>
	</vehicle>
	<vehicle depart="0.1" departLane="0" departPos="27.545109370944903" departSpeed="7.0389494" id="362" type="passenger">
		<route edges="1070 1118"/>
	</vehicle>
	<vehicle depart="0.1" departLane="0" departPos="35.92179491032993" departSpeed="7.0097797" id="368" type="passenger">
		<route edges="1070 1118"/>
	</vehicle>
	<vehicle depart="0.1" departLane="0" departPos="15.238507226955694" departSpeed="4.2838355" id="374" type="passenger">
		<route edges="1070 1118"/>
	</vehicle>
</routes>
