<!-- generated on 2020-12-18 15:58:28.242707 by ipykernel_launcher.py v1_2_0+5214-53edc58fcd
-->
<tlLogics/>
