<!-- generated on 2020-12-18 15:58:27.987142 by ipykernel_launcher.py v1_2_0+5214-53edc58fcd
-->
<edges>
	<edge from="1" function="normal" id="3431" length="7.746632106922337" numLanes="5" priority="1" speed="36.11111111111111" spreadType="center" to="2">
		<lane allow="moped bicycle pedestrian custom1 trailer evehicle rail_urban ship private truck vip custom2 authority delivery rail_electric taxi tram army hov coach motorcycle passenger bus rail emergency" index="0" length="7.746632106922337" shape="15.93315,63.0034 12.39105,55.992900000000006" speed="36.11111111111111" width="2.841755522559951"/>
		<lane allow="moped bicycle pedestrian custom1 trailer evehicle rail_urban ship private truck vip custom2 authority delivery rail_electric taxi tram army hov coach motorcycle passenger bus rail emergency" index="1" length="7.746632106922337" shape="18.5604,61.654700000000005 15.077549999999999,54.6468" speed="36.11111111111111" width="3.064659380746906"/>
		<lane allow="moped bicycle pedestrian custom1 trailer evehicle rail_urban ship private truck vip custom2 authority delivery rail_electric taxi tram army hov coach motorcycle passenger bus rail emergency" index="2" length="7.746632106922337" shape="21.27145,60.262950000000004 17.8238,53.2883" speed="36.11111111111111" width="3.0301778330652485"/>
		<lane allow="moped bicycle pedestrian custom1 trailer evehicle rail_urban ship private truck vip custom2 authority delivery rail_electric taxi tram army hov coach motorcycle passenger bus rail emergency" index="3" length="7.746632106922337" shape="23.9897,58.8675 20.5583,51.9223" speed="36.11111111111111" width="3.0528378404363354"/>
		<lane allow="moped bicycle pedestrian custom1 trailer evehicle rail_urban ship private truck vip custom2 authority delivery rail_electric taxi tram army hov coach motorcycle passenger bus rail emergency" index="4" length="7.746632106922337" shape="26.715,57.468450000000004 23.28405,50.4795" speed="36.11111111111111" width="3.046009725854468"/>
	</edge>
	<edge from="2" function="normal" id="3438" length="8.438893355322135" numLanes="6" priority="1" speed="36.11111111111111" spreadType="center" to="3">
		<lane allow="moped bicycle pedestrian custom1 trailer evehicle rail_urban ship private truck vip custom2 authority delivery rail_electric taxi tram army hov coach motorcycle passenger bus rail emergency" index="0" length="8.438893355322135" shape="12.39105,55.992900000000006 5.7162,49.71615" speed="36.11111111111111" width="2.94351281464851"/>
		<lane allow="moped bicycle pedestrian custom1 trailer evehicle rail_urban ship private truck vip custom2 authority delivery rail_electric taxi tram army hov coach motorcycle passenger bus rail emergency" index="1" length="8.438893355322135" shape="12.39105,55.992900000000006 8.5575,48.383250000000004" speed="36.11111111111111" width="2.94351281464851"/>
		<lane allow="moped bicycle pedestrian custom1 trailer evehicle rail_urban ship private truck vip custom2 authority delivery rail_electric taxi tram army hov coach motorcycle passenger bus rail emergency" index="2" length="8.438893355322135" shape="15.077549999999999,54.6468 11.306049999999999,47.0517" speed="36.11111111111111" width="3.054615309658486"/>
		<lane allow="moped bicycle pedestrian custom1 trailer evehicle rail_urban ship private truck vip custom2 authority delivery rail_electric taxi tram army hov coach motorcycle passenger bus rail emergency" index="3" length="8.438893355322135" shape="17.8238,53.2883 14.0371,45.70885" speed="36.11111111111111" width="3.032458014548595"/>
		<lane allow="moped bicycle pedestrian custom1 trailer evehicle rail_urban ship private truck vip custom2 authority delivery rail_electric taxi tram army hov coach motorcycle passenger bus rail emergency" index="4" length="8.438893355322135" shape="20.5583,51.9223 16.756,44.32765" speed="36.11111111111111" width="3.0528378404363354"/>
		<lane allow="moped bicycle pedestrian custom1 trailer evehicle rail_urban ship private truck vip custom2 authority delivery rail_electric taxi tram army hov coach motorcycle passenger bus rail emergency" index="5" length="8.438893355322135" shape="23.28405,50.4795 19.5439,42.914699999999996" speed="36.11111111111111" width="3.115279160845785"/>
	</edge>
	<edge from="3" function="normal" id="3450" length="24.494871241480368" numLanes="6" priority="1" speed="36.11111111111111" spreadType="center" to="4">
		<lane allow="moped bicycle pedestrian custom1 trailer evehicle rail_urban ship private truck vip custom2 authority delivery rail_electric taxi tram army hov coach motorcycle passenger bus rail emergency" index="0" length="24.494871241480368" shape="5.7162,49.71615 2.5515,43.4821 -1.2368000000000001,35.79495 -5.3225,27.85035" speed="36.11111111111111" width="3.2241062653082633"/>
		<lane allow="moped bicycle pedestrian custom1 trailer evehicle rail_urban ship private truck vip custom2 authority delivery rail_electric taxi tram army hov coach motorcycle passenger bus rail emergency" index="1" length="24.494871241480368" shape="8.5575,48.383250000000004 5.55,42.331649999999996 1.7270500000000002,34.383399999999995 -2.3768000000000002,26.246650000000002" speed="36.11111111111111" width="2.866561921535972"/>
		<lane allow="moped bicycle pedestrian custom1 trailer evehicle rail_urban ship private truck vip custom2 authority delivery rail_electric taxi tram army hov coach motorcycle passenger bus rail emergency" index="2" length="24.494871241480368" shape="11.306049999999999,47.0517 8.28305,41.00025 4.42925,33.05245 0.26570000000000005,24.9281" speed="36.11111111111111" width="3.004221073756057"/>
		<lane allow="moped bicycle pedestrian custom1 trailer evehicle rail_urban ship private truck vip custom2 authority delivery rail_electric taxi tram army hov coach motorcycle passenger bus rail emergency" index="3" length="24.494871241480368" shape="14.0371,45.70885 10.9507,39.5506 7.066000000000001,31.6032 3.05035,23.5537" speed="36.11111111111111" width="3.0189875720181423"/>
		<lane allow="moped bicycle pedestrian custom1 trailer evehicle rail_urban ship private truck vip custom2 authority delivery rail_electric taxi tram army hov coach motorcycle passenger bus rail emergency" index="4" length="24.494871241480368" shape="16.756,44.32765 13.63755,38.09295 9.75285,30.14555 5.81345,22.160400000000003" speed="36.11111111111111" width="3.018395509206837"/>
		<lane allow="moped bicycle pedestrian custom1 trailer evehicle rail_urban ship private truck vip custom2 authority delivery rail_electric taxi tram army hov coach motorcycle passenger bus rail emergency" index="5" length="24.494871241480368" shape="19.5439,42.914699999999996 16.33145,36.58905 12.446750000000002,28.64165 8.50925,20.78725" speed="36.11111111111111" width="3.032368793534191"/>
	</edge>
	<edge from="4" function="normal" id="3664" length="45.62159337177896" numLanes="2" priority="1" speed="36.11111111111111" spreadType="center" to="5">
		<lane allow="moped bicycle pedestrian custom1 trailer evehicle rail_urban ship private vip custom2 authority delivery rail_electric taxi tram army hov coach motorcycle passenger rail emergency" index="0" length="45.62159337177896" shape="5.81345,22.160400000000003 2.0551,14.779 -0.08030000000000004,10.37105 -1.1452,7.83915 -1.61865,5.7913 -1.7464499999999998,3.4259 -1.3050000000000002,0.6392 -0.5698999999999999,-1.927 0.49655000000000005,-3.8657500000000002 1.9094000000000002,-6.01215 5.02965,-8.9871 11.07425,-12.4698 20.087000000000003,-17.1845" speed="36.11111111111111" width="2.934935747167219"/>
		<lane allow="moped bicycle pedestrian custom1 trailer evehicle rail_urban ship private vip custom2 authority delivery rail_electric taxi tram army hov coach motorcycle passenger rail emergency" index="1" length="45.62159337177896" shape="8.50925,20.78725 5.15785,14.011050000000001 3.54995,9.96565 2.8861499999999998,7.5744 2.6098,5.79305 2.4418,3.76025 2.6710499999999997,1.6524999999999999 3.3193,-0.11335000000000006 4.28565,-1.6944000000000001 5.61165,-3.31365 8.0845,-5.88205 13.3491,-9.6404 21.63185,-14.0929" speed="36.11111111111111" width="3.032368793534191"/>
	</edge>
	<edge from="5" function="normal" id="3495" length="15.184501575044735" numLanes="3" priority="1" speed="36.11111111111111" spreadType="center" to="6">
		<lane allow="moped bicycle pedestrian custom1 trailer evehicle rail_urban ship private truck vip custom2 authority delivery rail_electric taxi tram army hov coach motorcycle passenger bus rail emergency" index="0" length="15.184501575044735" shape="18.46395,-20.5126 27.19125,-24.80765 32.09905,-27.222949999999997" speed="36.11111111111111" width="3.87658596447957"/>
		<lane allow="moped bicycle pedestrian custom1 trailer evehicle rail_urban ship private truck vip custom2 authority delivery rail_electric taxi tram army hov coach motorcycle passenger bus rail emergency" index="1" length="15.184501575044735" shape="20.087000000000003,-17.1845 28.81415,-21.47805 33.732749999999996,-23.89785" speed="36.11111111111111" width="3.511789538113012"/>
		<lane allow="moped bicycle pedestrian custom1 trailer evehicle rail_urban ship private truck vip custom2 authority delivery rail_electric taxi tram army hov coach motorcycle passenger bus rail emergency" index="2" length="15.184501575044735" shape="21.63185,-14.0929 30.310650000000003,-18.3615 35.25745,-20.79455" speed="36.11111111111111" width="3.382313814535842"/>
	</edge>
	<edge from="4" function="normal" id="3610" length="13.553882434287969" numLanes="3" priority="1" speed="36.11111111111111" spreadType="center" to="7">
		<lane allow="moped bicycle pedestrian custom1 trailer evehicle rail_urban ship private truck vip custom2 authority delivery rail_electric taxi tram army hov coach motorcycle passenger bus rail emergency" index="0" length="13.553882434287969" shape="-2.3768000000000002,26.246650000000002 -8.4135,14.07075" speed="36.11111111111111" width="2.866561921535972"/>
		<lane allow="moped bicycle pedestrian custom1 trailer evehicle rail_urban ship private truck vip custom2 authority delivery rail_electric taxi tram army hov coach motorcycle passenger bus rail emergency" index="1" length="13.553882434287969" shape="0.26570000000000005,24.9281 -5.68455,12.7369" speed="36.11111111111111" width="3.0173836033888692"/>
		<lane allow="moped bicycle pedestrian custom1 trailer evehicle rail_urban ship private truck vip custom2 authority delivery rail_electric taxi tram army hov coach motorcycle passenger bus rail emergency" index="2" length="13.553882434287969" shape="3.05035,23.5537 -2.92845,11.38975" speed="36.11111111111111" width="3.118054550517037"/>
	</edge>
	<edge from="7" function="normal" id="3646" length="16.509632755735122" numLanes="3" priority="1" speed="36.11111111111111" spreadType="center" to="8">
		<lane allow="moped bicycle pedestrian custom1 trailer evehicle rail_urban ship private truck vip custom2 authority delivery rail_electric taxi tram army hov coach motorcycle passenger bus rail emergency" index="0" length="16.509632755735122" shape="-8.4135,14.07075 -9.8475,11.17835 -11.48075,7.883800000000001 -12.885850000000001,5.0499 -14.27125,2.2555 -15.746850000000002,-0.7208" speed="36.11111111111111" width="3.0575892938718905"/>
		<lane allow="moped bicycle pedestrian custom1 trailer evehicle rail_urban ship private truck vip custom2 authority delivery rail_electric taxi tram army hov coach motorcycle passenger bus rail emergency" index="1" length="16.509632755735122" shape="-5.68455,12.7369 -7.1137999999999995,9.8087 -8.72805,6.5012 -10.1191,3.6531000000000002 -11.499,0.82765 -12.9678,-2.1795999999999998" speed="36.11111111111111" width="2.9903827313573093"/>
		<lane allow="moped bicycle pedestrian custom1 trailer evehicle rail_urban ship private truck vip custom2 authority delivery rail_electric taxi tram army hov coach motorcycle passenger bus rail emergency" index="2" length="16.509632755735122" shape="-2.92845,11.38975 -4.379049999999999,8.438500000000001 -6.0042,5.132099999999999 -7.405200000000001,2.283 -8.8036,-0.56065 -10.29075,-3.5847499999999997" speed="36.11111111111111" width="3.0564489100915795"/>
	</edge>
	<edge from="8" function="normal" id="3626" length="12.190574110865326" numLanes="3" priority="1" speed="36.11111111111111" spreadType="center" to="9">
		<lane allow="moped bicycle pedestrian custom1 trailer evehicle rail_urban ship private truck vip custom2 authority delivery rail_electric taxi tram army hov coach motorcycle passenger bus rail emergency" index="0" length="12.190574110865326" shape="-15.746850000000002,-0.7208 -21.162149999999997,-11.64255" speed="36.11111111111111" width="3.286946748884138"/>
		<lane allow="moped bicycle pedestrian custom1 trailer evehicle rail_urban ship private truck vip custom2 authority delivery rail_electric taxi tram army hov coach motorcycle passenger bus rail emergency" index="1" length="12.190574110865326" shape="-12.9678,-2.1795999999999998 -18.3185,-13.135200000000001" speed="36.11111111111111" width="2.9693589611227518"/>
		<lane allow="moped bicycle pedestrian custom1 trailer evehicle rail_urban ship private truck vip custom2 authority delivery rail_electric taxi tram army hov coach motorcycle passenger bus rail emergency" index="2" length="12.190574110865326" shape="-10.29075,-3.5847499999999997 -15.67045,-14.52515" speed="36.11111111111111" width="3.0119886487169913"/>
	</edge>
	<edge from="9" function="normal" id="3542" length="42.04503365774768" numLanes="3" priority="1" speed="36.11111111111111" spreadType="center" to="10">
		<lane allow="moped bicycle pedestrian custom1 trailer evehicle rail_urban ship private truck vip custom2 authority delivery rail_electric taxi tram army hov coach motorcycle passenger rail emergency" index="0" length="42.04503365774768" shape="-21.162149999999997,-11.64255 -25.32345,-20.18125 -29.3767,-29.11125 -33.14875,-37.82975 -36.7735,-47.0737 -38.09125,-50.28685" speed="36.11111111111111" width="2.8481341330772993"/>
		<lane allow="moped bicycle pedestrian custom1 trailer evehicle rail_urban ship private truck vip custom2 authority delivery rail_electric taxi tram army hov coach motorcycle passenger bus rail emergency" index="1" length="42.04503365774768" shape="-18.3185,-13.135200000000001 -22.5619,-21.69 -26.64405,-30.473399999999998 -30.3847,-39.1616 -34.038700000000006,-48.28189999999999 -35.38475,-51.62045" speed="36.11111111111111" width="2.9693589611227518"/>
		<lane allow="moped bicycle pedestrian custom1 trailer evehicle rail_urban ship private truck vip custom2 authority delivery rail_electric taxi tram army hov coach motorcycle passenger bus rail emergency" index="2" length="42.04503365774768" shape="-15.67045,-14.52515 -19.893250000000002,-23.2051 -23.9436,-31.9274 -27.71515,-40.6152 -31.21,-49.41455 -32.622699999999995,-52.9814" speed="36.11111111111111" width="2.962201547835665"/>
	</edge>
	<edge from="4" function="normal" id="3604" length="15.83780930439205" numLanes="1" priority="1" speed="36.11111111111111" spreadType="center" to="11">
		<lane allow="moped bicycle pedestrian custom1 trailer evehicle rail_urban ship private vip custom2 authority delivery rail_electric taxi tram army hov coach motorcycle passenger rail emergency" index="0" length="15.83780930439205" shape="-5.3225,27.85035 -6.364750000000001,26.57625 -7.6235,25.0244 -9.0115,23.628149999999998 -10.8919,22.392850000000003 -12.5931,21.80905 -14.3893,21.61135 -16.311,21.830849999999998 -18.627000000000002,22.58305" speed="36.11111111111111" width="3.843390931196044"/>
	</edge>
	<edge from="11" function="normal" id="3487" length="21.42834305383199" numLanes="3" priority="1" speed="36.11111111111111" spreadType="center" to="12">
		<lane allow="moped bicycle pedestrian custom1 trailer evehicle rail_urban ship private truck vip custom2 authority delivery rail_electric taxi tram army hov coach motorcycle passenger bus rail emergency" index="0" length="21.42834305383199" shape="-18.627000000000002,22.58305 -27.8405,27.02245 -36.677400000000006,31.84115 -37.67375,32.38635" speed="36.11111111111111" width="4.576431161942674"/>
		<lane allow="moped bicycle pedestrian custom1 trailer evehicle rail_urban ship private truck vip custom2 authority delivery rail_electric taxi tram army hov coach motorcycle passenger bus rail emergency" index="1" length="21.42834305383199" shape="-20.3443,18.1291 -29.73475,23.17115 -38.38120000000001,28.34115 -39.40815,28.9576" speed="36.11111111111111" width="3.1084813092569807"/>
		<lane allow="moped bicycle pedestrian custom1 trailer evehicle rail_urban ship private truck vip custom2 authority delivery rail_electric taxi tram army hov coach motorcycle passenger bus rail emergency" index="2" length="21.42834305383199" shape="-21.48,14.898 -31.261699999999998,20.14565 -39.908150000000006,25.315649999999998 -40.937749999999994,25.93375" speed="36.11111111111111" width="3.6645851129425298"/>
	</edge>
	<edge from="13" function="normal" id="3479" length="22.651817425696017" numLanes="3" priority="1" speed="36.11111111111111" spreadType="center" to="14">
		<lane allow="moped bicycle pedestrian custom1 trailer evehicle rail_urban ship private truck vip custom2 authority delivery rail_electric taxi tram army hov coach motorcycle passenger bus rail emergency" index="0" length="22.651817425696017" shape="-45.801050000000004,16.31945 -44.658500000000004,15.74155 -35.078500000000005,10.9892 -25.468049999999998,6.20565" speed="36.11111111111111" width="3.231198096681782"/>
		<lane allow="moped bicycle pedestrian custom1 trailer evehicle rail_urban ship private truck vip custom2 authority delivery rail_electric taxi tram army hov coach motorcycle passenger rail emergency" index="1" length="22.651817425696017" shape="-44.38955,19.10985 -43.22775,18.52215 -33.64775,13.7698 -24.03725,8.98625" speed="36.11111111111111" width="3.0229731226062904"/>
		<lane allow="moped bicycle pedestrian custom1 trailer evehicle rail_urban ship private truck vip custom2 authority delivery rail_electric taxi tram army hov coach motorcycle passenger rail emergency" index="2" length="22.651817425696017" shape="-43.016999999999996,21.82325 -41.8214,21.21845 -32.2414,16.4661 -22.7305,11.7455" speed="36.11111111111111" width="3.0586164927953905"/>
	</edge>
	<edge from="14" function="normal" id="3672" length="43.429643178518916" numLanes="1" priority="1" speed="36.11111111111111" spreadType="center" to="15">
		<lane allow="moped bicycle pedestrian custom1 trailer evehicle rail_urban ship private vip custom2 authority delivery rail_electric taxi tram army hov coach motorcycle passenger rail emergency" index="0" length="43.429643178518916" shape="-22.7305,11.7455 -17.5733,9.20515 -13.9905,7.720649999999999 -10.144649999999999,6.362 -7.36395,5.3917 -4.878,4.89485 -2.64315,4.68245 -0.30695,4.79945 1.33755,4.9338500000000005 2.447,5.1901 3.38675,5.7730999999999995 4.306,7.1233 5.4617,9.05165 8.12915,13.2891 9.7029,16.34085 11.17465,19.453" speed="36.11111111111111" width="2.9171821763475805"/>
	</edge>
	<edge from="15" function="normal" id="3456" length="24.710920579823167" numLanes="3" priority="1" speed="36.11111111111111" spreadType="center" to="16">
		<lane allow="moped bicycle pedestrian custom1 trailer evehicle rail_urban ship private truck vip custom2 authority delivery rail_electric taxi tram army hov coach motorcycle passenger bus rail emergency" index="0" length="24.710920579823167" shape="16.7013,16.6933 20.2971,23.8869 24.15045,31.804 27.5131,38.912400000000005" speed="36.11111111111111" width="3.0476685974692197"/>
		<lane allow="moped bicycle pedestrian custom1 trailer evehicle rail_urban ship private truck vip custom2 authority delivery rail_electric taxi tram army hov coach motorcycle passenger bus rail emergency" index="1" length="24.710920579823167" shape="13.87245,18.08755 17.73255,25.65445 21.410800000000002,33.22005 24.84965,40.2505" speed="36.11111111111111" width="2.9148241130469597"/>
		<lane allow="moped bicycle pedestrian custom1 trailer evehicle rail_urban ship private truck vip custom2 authority delivery rail_electric taxi tram army hov coach motorcycle passenger bus rail emergency" index="2" length="24.710920579823167" shape="11.17465,19.453 15.10315,27.215200000000003 18.8916,34.91775 22.26315,41.564350000000005" speed="36.11111111111111" width="2.8880043801905853"/>
	</edge>
	<edge from="16" function="normal" id="3462" length="8.466645302154797" numLanes="3" priority="1" speed="36.11111111111111" spreadType="center" to="17">
		<lane allow="moped bicycle pedestrian custom1 trailer evehicle rail_urban ship private truck vip custom2 authority delivery rail_electric taxi tram army hov coach motorcycle passenger bus rail emergency" index="0" length="8.466645302154797" shape="27.5131,38.912400000000005 31.392400000000002,46.47515" speed="36.11111111111111" width="3.0476685974692197"/>
		<lane allow="moped bicycle pedestrian custom1 trailer evehicle rail_urban ship private truck vip custom2 authority delivery rail_electric taxi tram army hov coach motorcycle passenger bus rail emergency" index="1" length="8.466645302154797" shape="24.84965,40.2505 28.667749999999998,47.8602" speed="36.11111111111111" width="2.9148241130469597"/>
		<lane allow="moped bicycle pedestrian custom1 trailer evehicle rail_urban ship private truck vip custom2 authority delivery rail_electric taxi tram army hov coach motorcycle passenger bus rail emergency" index="2" length="8.466645302154797" shape="22.26315,41.564350000000005 26.0038,49.15985" speed="36.11111111111111" width="2.8880043801905853"/>
	</edge>
	<edge from="17" function="normal" id="3470" length="7.6445065283836335" numLanes="3" priority="1" speed="36.11111111111111" spreadType="center" to="18">
		<lane allow="moped bicycle pedestrian custom1 trailer evehicle rail_urban ship private truck vip custom2 authority delivery rail_electric taxi tram army hov coach motorcycle passenger bus rail emergency" index="0" length="7.6445065283836335" shape="31.392400000000002,46.47515 34.7838,53.3262" speed="36.11111111111111" width="3.0549991620293437"/>
		<lane allow="moped bicycle pedestrian custom1 trailer evehicle rail_urban ship private truck vip custom2 authority delivery rail_electric taxi tram army hov coach motorcycle passenger bus rail emergency" index="1" length="7.6445065283836335" shape="28.667749999999998,47.8602 32.08325,54.71255" speed="36.11111111111111" width="2.998011102381044"/>
		<lane allow="moped bicycle pedestrian custom1 trailer evehicle rail_urban ship private truck vip custom2 authority delivery rail_electric taxi tram army hov coach motorcycle passenger bus rail emergency" index="2" length="7.6445065283836335" shape="26.0038,49.15985 29.405749999999998,56.0871" speed="36.11111111111111" width="2.935087571095621"/>
	</edge>
	<edge from="14" function="normal" id="3636" length="10.130444963203738" numLanes="2" priority="1" speed="36.11111111111111" spreadType="center" to="19">
		<lane allow="moped bicycle pedestrian custom1 trailer evehicle rail_urban ship private truck vip custom2 authority delivery rail_electric taxi tram army hov coach motorcycle passenger bus rail emergency" index="0" length="10.130444963203738" shape="-25.468049999999998,6.20565 -16.45695,1.5203" speed="36.11111111111111" width="3.2321866189934023"/>
		<lane allow="moped bicycle pedestrian custom1 trailer evehicle rail_urban ship private truck vip custom2 authority delivery rail_electric taxi tram army hov coach motorcycle passenger bus rail emergency" index="1" length="10.130444963203738" shape="-24.03725,8.98625 -15.012550000000001,4.384" speed="36.11111111111111" width="3.0254656269738045"/>
	</edge>
	<edge from="19" function="normal" id="3658" length="24.834013362889845" numLanes="2" priority="1" speed="36.11111111111111" spreadType="center" to="20">
		<lane allow="moped bicycle pedestrian custom1 trailer evehicle rail_urban ship private truck vip custom2 authority delivery rail_electric taxi tram army hov coach motorcycle passenger bus rail emergency" index="0" length="24.834013362889845" shape="-16.45695,1.5203 -13.561150000000001,0.01440000000000008 -10.905650000000001,-1.36635 -8.1887,-2.77905 -5.2004,-4.33295 -2.4987500000000002,-5.73785 0.14595000000000002,-7.1129999999999995 2.8615000000000004,-8.525 5.63325,-9.966249999999999" speed="36.11111111111111" width="3.308908788407442"/>
		<lane allow="moped bicycle pedestrian custom1 trailer evehicle rail_urban ship private truck vip custom2 authority delivery rail_electric taxi tram army hov coach motorcycle passenger bus rail emergency" index="1" length="24.834013362889845" shape="-15.012550000000001,4.384 -12.14455,2.9214 -9.47355,1.55935 -6.735250000000001,0.16300000000000003 -3.77065,-1.34875 -1.0602,-2.7310000000000003 1.58975,-4.08225 4.3242,-5.47655 7.111000000000001,-6.8977" speed="36.11111111111111" width="3.1057834261261683"/>
	</edge>
	<edge from="20" function="normal" id="3676" length="16.15592838945517" numLanes="2" priority="1" speed="36.11111111111111" spreadType="center" to="5">
		<lane allow="moped bicycle pedestrian custom1 trailer evehicle rail_urban ship private truck vip custom2 authority delivery rail_electric taxi tram army hov coach motorcycle passenger bus rail emergency" index="0" length="16.15592838945517" shape="5.63325,-9.966249999999999 11.65295,-12.9725 20.087000000000003,-17.1845" speed="36.11111111111111" width="3.5034549033775213"/>
		<lane allow="moped bicycle pedestrian custom1 trailer evehicle rail_urban ship private truck vip custom2 authority delivery rail_electric taxi tram army hov coach motorcycle passenger bus rail emergency" index="1" length="16.15592838945517" shape="7.111000000000001,-6.8977 13.13565,-9.883 21.63185,-14.0929" speed="36.11111111111111" width="3.3082245268421553"/>
	</edge>
	<edge from="14" function="normal" id="3600" length="24.19746751136553" numLanes="1" priority="1" speed="36.11111111111111" spreadType="center" to="9">
		<lane allow="moped bicycle pedestrian custom1 trailer evehicle rail_urban ship private vip custom2 authority delivery rail_electric taxi tram army hov coach motorcycle passenger rail emergency" index="0" length="24.19746751136553" shape="-25.468049999999998,6.20565 -20.97975,3.8107 -18.98675,2.6206 -17.3837,1.7100000000000002 -16.6406,1.23005 -16.2165,0.6424500000000001 -16.1807,-0.1645 -16.587899999999998,-1.5761 -17.3888,-3.54225 -18.36925,-5.6406 -21.162149999999997,-11.64255" speed="36.11111111111111" width="3.2321866189934023"/>
	</edge>
	<edge from="21" function="normal" id="3502" length="11.539017429977402" numLanes="2" priority="1" speed="36.11111111111111" spreadType="center" to="22">
		<lane allow="moped bicycle pedestrian custom1 trailer evehicle rail_urban ship private truck vip custom2 authority delivery rail_electric taxi tram army hov coach motorcycle passenger bus rail emergency" index="0" length="11.539017429977402" shape="39.80095,-11.5473 34.75125,-9.0789 29.40685,-6.46635" speed="36.11111111111111" width="3.6072313177837665"/>
		<lane allow="moped bicycle pedestrian custom1 trailer evehicle rail_urban ship private truck vip custom2 authority delivery rail_electric taxi tram army hov coach motorcycle passenger bus rail emergency" index="1" length="11.539017429977402" shape="38.196349999999995,-14.81315 33.220749999999995,-12.3805 27.829900000000002,-9.745049999999999" speed="36.11111111111111" width="3.630791497731587"/>
	</edge>
	<edge from="22" function="normal" id="3528" length="6.57557739613032" numLanes="3" priority="1" speed="36.11111111111111" spreadType="center" to="23">
		<lane allow="moped bicycle pedestrian custom1 trailer evehicle rail_urban ship private truck vip custom2 authority delivery rail_electric taxi tram army hov coach motorcycle passenger bus rail emergency" index="0" length="6.57557739613032" shape="29.40685,-6.46635 24.984,-0.4445" speed="36.11111111111111" width="3.2457372413675123"/>
		<lane allow="moped bicycle pedestrian custom1 trailer evehicle rail_urban ship private truck vip custom2 authority delivery rail_electric taxi tram army hov coach motorcycle passenger bus rail emergency" index="1" length="6.57557739613032" shape="29.40685,-6.46635 23.49485,-3.52635" speed="36.11111111111111" width="3.6024336135451542"/>
		<lane allow="moped bicycle pedestrian custom1 trailer evehicle rail_urban ship private truck vip custom2 authority delivery rail_electric taxi tram army hov coach motorcycle passenger bus rail emergency" index="2" length="6.57557739613032" shape="27.829900000000002,-9.745049999999999 21.941850000000002,-6.81775" speed="36.11111111111111" width="3.671307975367905"/>
	</edge>
	<edge from="23" function="normal" id="3534" length="6.608363657139339" numLanes="3" priority="1" speed="36.11111111111111" spreadType="center" to="24">
		<lane allow="moped bicycle pedestrian custom1 trailer evehicle rail_urban ship private truck vip custom2 authority delivery rail_electric taxi tram army hov coach motorcycle passenger bus rail emergency" index="0" length="6.608363657139339" shape="24.984,-0.4445 19.00445,2.44495" speed="36.11111111111111" width="3.190167196245363"/>
		<lane allow="moped bicycle pedestrian custom1 trailer evehicle rail_urban ship private truck vip custom2 authority delivery rail_electric taxi tram army hov coach motorcycle passenger bus rail emergency" index="1" length="6.608363657139339" shape="23.49485,-3.52635 17.554699999999997,-0.5816000000000001" speed="36.11111111111111" width="3.5215687697388502"/>
		<lane allow="moped bicycle pedestrian custom1 trailer evehicle rail_urban ship private truck vip custom2 authority delivery rail_electric taxi tram army hov coach motorcycle passenger bus rail emergency" index="2" length="6.608363657139339" shape="21.941850000000002,-6.81775 16.0318,-3.8611" speed="36.11111111111111" width="3.6773714878973003"/>
	</edge>
	<edge from="24" function="normal" id="3620" length="6.669397413559935" numLanes="2" priority="1" speed="36.11111111111111" spreadType="center" to="25">