<!-- generated on 2020-12-18 15:58:28.088371 by ipykernel_launcher.py v1_2_0+5214-53edc58fcd
-->
<nodes>
	<node id="1" type="from" x="21.29394" y="60.251400000000004"/>
	<node id="2" type="to" x="17.82695" y="53.26595999999999"/>
	<node id="3" type="to" x="12.652791666666667" y="46.350383333333326"/>
	<node id="4" type="to" x="1.656575" y="24.254408333333334"/>
	<node id="5" type="to" x="20.859425" y="-15.6387"/>
	<node id="6" type="to" x="33.696416666666664" y="-23.97178333333333"/>
	<node id="7" type="to" x="-5.6755" y="12.732466666666667"/>
	<node id="8" type="to" x="-13.001800000000001" y="-2.1617166666666665"/>
	<node id="9" type="to" x="-18.3837" y="-13.100966666666666"/>
	<node id="10" type="to" x="-35.366233333333334" y="-51.62956666666667"/>
	<node id="11" type="to" x="-18.627000000000002" y="22.58305"/>
	<node id="12" type="to" x="-39.339883333333326" y="29.092566666666666"/>
	<node id="13" type="from" x="-44.40253333333334" y="19.084183333333332"/>
	<node id="14" type="to" x="-24.078599999999998" y="8.979133333333333"/>
	<node id="15" type="to" x="11.17465" y="19.453"/>
	<node id="16" type="to" x="24.8753" y="40.24241666666667"/>
	<node id="17" type="to" x="28.687983333333335" y="47.83173333333334"/>
	<node id="18" type="to" x="32.09093333333333" y="54.708616666666664"/>
	<node id="19" type="to" x="-15.73475" y="2.95215"/>
	<node id="20" type="to" x="6.3721250000000005" y="-8.431975"/>
	<node id="21" type="from" x="38.99865" y="-13.180225"/>
	<node id="22" type="to" x="28.618375" y="-8.105699999999999"/>
	<node id="23" type="to" x="23.47356666666667" y="-3.5962"/>
	<node id="24" type="to" x="17.530316666666664" y="-0.6659166666666667"/>
	<node id="25" type="to" x="10.800775000000002" y="0.7642500000000001"/>
	<node id="26" type="to" x="-11.2866" y="11.770150000000001"/>
	<node id="27" type="from" x="-22.98666" y="-57.72934"/>
	<node id="28" type="to" x="-4.3733" y="-20.467859999999998"/>
	<node id="29" type="to" x="0.7761833333333333" y="-9.393933333333333"/>
	<node id="30" type="to" x="8.1362" y="5.981566666666666"/>
</nodes>
