<routes>
	<vehicle depart="0.1" departLane="0" departPos="8.891343910958737" departSpeed="6.7513" id="1864" type="passenger">
		<route edges="3676 3495"/>
	</vehicle>
	<vehicle depart="0.1" departLane="0" departPos="34.32316611789798" departSpeed="5.4376" id="1866" type="passenger">
		<route edges="3664 3495"/>
	</vehicle>
	<vehicle depart="0.1" departLane="1" departPos="0" departSpeed="8.4978" id="1876" type="passenger">
		<route edges="3646 3626 3542"/>
	</vehicle>
	<vehicle depart="0.1" departLane="2" departPos="7.7908657646051775" departSpeed="8.6502" id="1879" type="passenger">
		<route edges="3646 3626 3542"/>
	</vehicle>
	<vehicle depart="0.1" departLane="2" departPos="0" departSpeed="9.333" id="1881" type="passenger">
		<route edges="3610 3646 3626 3542"/>
	</vehicle>
	<vehicle depart="0.1" departLane="2" departPos="0" departSpeed="5.6083" id="1883" type="passenger">
		<route edges="3495"/>
	</vehicle>
	<vehicle depart="0.1" departLane="2" departPos="41.65840591059532" departSpeed="0.14935" id="1886" type="passenger">
		<route edges="3573 3632 3652 3616 3456 3462 3470"/>
	</vehicle>
	<vehicle depart="0.1" departLane="2" departPos="0" departSpeed="0.0" id="1893" type="passenger">
		<route edges="3632 3652 3616 3456 3462 3470"/>
	</vehicle>
	<vehicle depart="0.1" departLane="2" departPos="41.65840591059532" departSpeed="0.0" id="1896" type="passenger">
		<route edges="3573 3632 3652 3616 3456 3462 3470"/>
	</vehicle>
	<vehicle depart="0.1" departLane="1" departPos="41.56189728917717" departSpeed="0.0" id="1897" type="passenger">
		<route edges="3573 3680 3495"/>
	</vehicle>
	<vehicle depart="0.1" departLane="0" departPos="0" departSpeed="0.1463" id="1898" type="passenger">
		<route edges="3632 3652 3616 3456 3462 3470"/>
	</vehicle>
	<vehicle depart="0.1" departLane="1" departPos="28.6189649168728" departSpeed="0.0" id="1901" type="passenger">
		<route edges="3573 3680 3495"/>
	</vehicle>
	<vehicle depart="0.1" departLane="3" departPos="41.74398239742749" departSpeed="0.0" id="1902" type="passenger">
		<route edges="3573 3632 3652 3616 3456 3462 3470"/>
	</vehicle>
	<vehicle depart="0.1" departLane="1" departPos="20.848355942892344" departSpeed="0.0" id="1905" type="passenger">
		<route edges="3573 3680 3495"/>
	</vehicle>
	<vehicle depart="0.1" departLane="2" departPos="28.2763461388039" departSpeed="0.38405" id="1906" type="passenger">
		<route edges="3573 3632 3652 3616 3456 3462 3470"/>
	</vehicle>
	<vehicle depart="0.1" departLane="1" departPos="14.00528504997311" departSpeed="0.0" id="1907" type="passenger">
		<route edges="3573 3680 3495"/>
	</vehicle>
	<vehicle depart="0.1" departLane="1" departPos="0" departSpeed="0.0" id="1909" type="passenger">
		<route edges="3573 3680 3495"/>
	</vehicle>
	<vehicle depart="0.1" departLane="3" departPos="29.978060483686008" departSpeed="0.0" id="1917" type="passenger">
		<route edges="3573 3632 3652 3616 3456 3462 3470"/>
	</vehicle>
	<vehicle depart="0.1" departLane="3" departPos="20.5965480848513" departSpeed="0.048768" id="1922" type="passenger">
		<route edges="3573 3632 3652 3616 3456 3462 3470"/>
	</vehicle>
	<vehicle depart="0.1" departLane="0" departPos="0" departSpeed="0.0" id="1931" type="passenger">
		<route edges="3620 3662 3640 3487"/>
	</vehicle>
	<vehicle depart="0.1" departLane="0" departPos="14.096704482818058" departSpeed="5.0018" id="1932" type="passenger">
		<route edges="3664 3664 3495"/>
	</vehicle>
	<vehicle depart="0.1" departLane="3" departPos="14.015811550786172" departSpeed="0.0" id="1933" type="passenger">
		<route edges="3573 3632 3652 3616 3456 3462 3470"/>
	</vehicle>
	<vehicle depart="0.1" departLane="2" departPos="19.82232051998778" departSpeed="0.0" id="1937" type="passenger">
		<route edges="3573 3632 3652 3616 3456 3462 3470"/>
	</vehicle>
	<vehicle depart="0.1" departLane="1" departPos="0" departSpeed="0.0" id="1949" type="passenger">
		<route edges="3620 3662 3640 3487"/>
	</vehicle>
	<vehicle depart="0.1" departLane="2" departPos="0" departSpeed="0.10363" id="1953" type="passenger">
		<route edges="3573 3632 3652 3616 3456 3462 3470"/>
	</vehicle>
	<vehicle depart="0.1" departLane="3" departPos="0" departSpeed="3.8039" id="1956" type="passenger">
		<route edges="3573 3632 3652 3616 3456 3462 3470"/>
	</vehicle>
</routes>
