<routes>
	<vehicle depart="0.1" departLane="0" departPos="26.22372918507768" departSpeed="6.8703142" id="37" type="bicycle">
		<route edges=":35_2 46638"/>
	</vehicle>
	<vehicle depart="0.1" departLane="0" departPos="49.113554812493696" departSpeed="0.09698194" id="338" type="bicycle">
		<route edges="46644 46641"/>
	</vehicle>
	<vehicle depart="0.1" departLane="0" departPos="70.03107201592267" departSpeed="0.0" id="331" type="bus">
		<route edges="46644 46641"/>
	</vehicle>
	<vehicle depart="0.1" departLane="0" departPos="19.800524708200786" departSpeed="6.5015906" id="31" type="passenger">
		<route edges=":35_4 46642 46617"/>
	</vehicle>
	<vehicle depart="0.1" departLane="0" departPos="6.083582941770546" departSpeed="4.7654972" id="36" type="passenger">
		<route edges=":33_0 46641 46638"/>
	</vehicle>
	<vehicle depart="0.1" departLane="0" departPos="70.66201380984539" departSpeed="7.928549" id="315" type="passenger">
		<route edges="46592 46638"/>
	</vehicle>
	<vehicle depart="0.1" departLane="0" departPos="27.074528354837014" departSpeed="11.618785" id="321" type="passenger">
		<route edges=":35_2 46638"/>
	</vehicle>
	<vehicle depart="0.1" departLane="0" departPos="55.11810583487132" departSpeed="0.011652598" id="335" type="passenger">
		<route edges="46644 46641"/>
	</vehicle>
	<vehicle depart="0.1" departLane="0" departPos="47.53686175303646" departSpeed="0.086397345" id="341" type="motorcycle">
		<route edges="46644 46641"/>
	</vehicle>
	<vehicle depart="0.1" departLane="0" departPos="34.486029995816665" departSpeed="2.1762736" id="30" type="truck">
		<route edges="46616 46641"/>
	</vehicle>
</routes>
