<!-- generated on 2020-12-18 15:39:40.409424 by ipykernel_launcher.py v1_2_0+5214-53edc58fcd
-->
<nodes>
	<node id="1" type="from" x="-170.6548375" y="4.8900500000000005"/>
	<node id="2" type="to" x="14.6097625" y="10.1161375"/>
	<node id="3" type="from" x="-60.61515" y="-89.1079"/>
	<node id="4" type="to" x="14.83575" y="1.002625"/>
	<node id="5" type="to" x="149.0827" y="17.979975"/>
	<node id="6" type="to" x="150.42860000000002" y="5.0514"/>
	<node id="7" type="to" x="183.67365" y="20.4434"/>
	<node id="8" type="to" x="184.201625" y="15.213925"/>
	<node id="9" type="to" x="2124.73665" y="204.04895"/>
	<node id="10" type="to" x="2126.2483" y="200.7403"/>
	<node id="11" type="to" x="2128.2763999999997" y="195.54930000000002"/>
</nodes>
