<routes>
	<vehicle depart="0.1" departLane="1" departPos="101.27785534115267" departSpeed="12.271901" id="1" type="passenger">
		<route edges="26 28 24"/>
	</vehicle>
	<vehicle depart="0.1" departLane="0" departPos="82.1645165267316" departSpeed="13.219314" id="2" type="passenger">
		<route edges="26 26 28 24"/>
	</vehicle>
	<vehicle depart="0.1" departLane="0" departPos="127.12176984717975" departSpeed="4.0016259" id="3" type="passenger">
		<route edges="26 27 24"/>
	</vehicle>
</routes>
