<routes>
	<vehicle depart="0.1" departLane="0" departPos="15.67265772810132" departSpeed="1.0811051e-05" id="33" type="passenger">
		<route edges=":69_4 10434"/>
	</vehicle>
	<vehicle depart="0.1" departLane="0" departPos="21.890302235133902" departSpeed="1.17221" id="323" type="passenger">
		<route edges=":69_1 10434"/>
	</vehicle>
	<vehicle depart="0.1" departLane="0" departPos="23.17421433220095" departSpeed="0.0" id="327" type="passenger">
		<route edges=":69_4 10434"/>
	</vehicle>
	<vehicle depart="0.1" departLane="0" departPos="26.893301282084586" departSpeed="2.1700234" id="328" type="passenger">
		<route edges=":69_5 10404"/>
	</vehicle>
	<vehicle depart="0.1" departLane="0" departPos="6.731295868508985" departSpeed="0.53566961" id="335" type="passenger">
		<route edges=":69_5 10404"/>
	</vehicle>
	<vehicle depart="0.1" departLane="0" departPos="32.02076156608258" departSpeed="0.59775609" id="338" type="passenger">
		<route edges="10645 10437"/>
	</vehicle>
	<vehicle depart="0.1" departLane="0" departPos="49.489098473975076" departSpeed="1.9414813" id="339" type="passenger">
		<route edges="10431 10404"/>
	</vehicle>
	<vehicle depart="0.1" departLane="0" departPos="60.75283133324513" departSpeed="0.17504172" id="342" type="passenger">
		<route edges="10431 10404"/>
	</vehicle>
	<vehicle depart="0.1" departLane="0" departPos="26.186712305594163" departSpeed="1.0382536" id="346" type="truck">
		<route edges="10431 10404"/>
	</vehicle>
</routes>
