<routes>
	<vehicle depart="0.1" departLane="0" departPos="19.511030450559872" departSpeed="0.0" id="36" type="bicycle">
		<route edges="40662 40772"/>
	</vehicle>
	<vehicle depart="0.1" departLane="0" departPos="67.98408792583203" departSpeed="0.0" id="329" type="bus">
		<route edges="40731 40884"/>
	</vehicle>
	<vehicle depart="0.1" departLane="0" departPos="14.509831242937107" departSpeed="0.0010165781" id="38" type="passenger">
		<route edges="40662 40772"/>
	</vehicle>
	<vehicle depart="0.1" departLane="0" departPos="30.477506891654038" departSpeed="8.7190509" id="330" type="passenger">
		<route edges=":66_1 40947 41241 40730"/>
	</vehicle>
	<vehicle depart="0.1" departLane="0" departPos="6.981887412162373" departSpeed="0.03097777" id="334" type="passenger">
		<route edges="40662 40772"/>
	</vehicle>
	<vehicle depart="0.1" departLane="0" departPos="53.412047589212364" departSpeed="0.0" id="336" type="passenger">
		<route edges="40731 40884"/>
	</vehicle>
	<vehicle depart="0.1" departLane="0" departPos="45.91076305684491" departSpeed="3.1964902e-05" id="342" type="passenger">
		<route edges="40731 40884"/>
	</vehicle>
	<vehicle depart="0.1" departLane="0" departPos="27.193046617628696" departSpeed="1.1651463" id="347" type="passenger">
		<route edges=":66_5 40662"/>
	</vehicle>
	<vehicle depart="0.1" departLane="0" departPos="19.51094806695623" departSpeed="0.0" id="325" type="motorcycle">
		<route edges="40662 40772"/>
	</vehicle>
	<vehicle depart="0.1" departLane="0" departPos="3.75" departSpeed="0.36862904" id="338" type="truck">
		<route edges=":66_5 40662"/>
	</vehicle>
</routes>
