<routes>
	<vehicle depart="0.1" departLane="0" departPos="48.59519179276014" departSpeed="0.2824715" id="350" type="bus">
		<route edges="62174 62171"/>
	</vehicle>
	<vehicle depart="0.1" departLane="0" departPos="8.701573307442107" departSpeed="4.4778214" id="323" type="passenger">
		<route edges="62459 62175"/>
	</vehicle>
	<vehicle depart="0.1" departLane="0" departPos="60.549598485849216" departSpeed="0.16573612" id="325" type="passenger">
		<route edges="62062 62459"/>
	</vehicle>
	<vehicle depart="0.1" departLane="0" departPos="2.5" departSpeed="0.25549595" id="326" type="passenger">
		<route edges=":37_0 62463 61996"/>
	</vehicle>
	<vehicle depart="0.1" departLane="0" departPos="10.744600723753722" departSpeed="1.4788773" id="328" type="passenger">
		<route edges=":38_3 62460"/>
	</vehicle>
	<vehicle depart="0.1" departLane="0" departPos="12.82398939737095" departSpeed="0.7630792" id="336" type="passenger">
		<route edges="62460 62063"/>
	</vehicle>
	<vehicle depart="0.1" departLane="0" departPos="31.212165929664142" departSpeed="1.277943" id="338" type="passenger">
		<route edges=":38_0 62460 62063"/>
	</vehicle>
	<vehicle depart="0.1" departLane="0" departPos="5.709291610320526" departSpeed="11.34168" id="347" type="passenger">
		<route edges=":37_5 62459"/>
	</vehicle>
	<vehicle depart="0.1" departLane="0" departPos="69.89866755726635" departSpeed="0.18318455" id="34" type="motorcycle">
		<route edges="62172 62175"/>
	</vehicle>
	<vehicle depart="0.1" departLane="0" departPos="3.75" departSpeed="2.5680004" id="30" type="truck">
		<route edges=":38_5 62175"/>
	</vehicle>
</routes>
