<!-- generated on Tue Feb  9 22:17:43 2021 by Eclipse SUMO netconvert Version 1.8.0
<configuration xmlns:xsi="http://www.w3.org/2001/XMLSchema-instance" xsi:noNamespaceSchemaLocation="http://sumo.dlr.de/xsd/netconvertConfiguration.xsd">

    <input>
        <node-files value="./converted_scenarios/scenario-factory/BEL_Wervik-1_3_I-1-1/BEL_Wervik-1_3_I-1-1.nod.xml"/>
        <edge-files value="./converted_scenarios/scenario-factory/BEL_Wervik-1_3_I-1-1/BEL_Wervik-1_3_I-1-1.edg.xml"/>
        <connection-files value="./converted_scenarios/scenario-factory/BEL_Wervik-1_3_I-1-1/BEL_Wervik-1_3_I-1-1.con.xml"/>
        <tllogic-files value="./converted_scenarios/scenario-factory/BEL_Wervik-1_3_I-1-1/BEL_Wervik-1_3_I-1-1.tll.xml"/>
        <type-files value="/home/zen/commonroad-interactive-benchmarks/install/commonroad-map-tool/crmapconverter/sumo_map/templates/DEU.typ.xml"/>
    </input>

    <output>
        <output-file value="./converted_scenarios/scenario-factory/BEL_Wervik-1_3_I-1-1/BEL_Wervik-1_3_I-1-1.net.xml"/>
    </output>

    <processing>
        <geometry.remove.keep-edges.explicit value="true"/>
        <geometry.avoid-overlap value="true"/>
        <offset.disable-normalization value="true"/>
    </processing>

    <junctions>
        <no-turnarounds value="true"/>
        <junctions.internal-link-detail value="20"/>
    </junctions>

    <report>
        <aggregate-warnings value="5"/>
    </report>

    <random_number>
        <seed value="1234"/>
    </random_number>

</configuration>
--><net xmlns:xsi="http://www.w3.org/2001/XMLSchema-instance" version="1.6" junctionCornerDetail="5" junctionLinkDetail="20" limitTurnSpeed="5.50" xsi:noNamespaceSchemaLocation="http://sumo.dlr.de/xsd/net_file.xsd">

    <location netOffset="0.00,0.00" convBoundary="-52.28,912.01,250.03,1082.15" origBoundary="-52.28,912.01,250.03,1082.15" projParameter="!"/>

    <type id="highway.bridleway" priority="1" speed="2.78" allow="pedestrian" oneway="1" width="2.00"/>
    <type id="highway.bus_guideway" priority="1" speed="27.78" allow="bus" oneway="1"/>
    <type id="highway.cycleway" priority="1" speed="8.33" allow="bicycle" oneway="0" width="1.00"/>
    <type id="highway.footway" priority="1" speed="2.78" allow="pedestrian" oneway="1" width="2.00"/>
    <type id="highway.ford" priority="1" speed="2.78" allow="army" oneway="0"/>
    <type id="highway.living_street" priority="2" speed="2.78" disallow="tram rail_urban rail rail_electric rail_fast ship" oneway="0"/>
    <type id="highway.motorway" priority="14" speed="39.44" allow="private emergency authority army vip passenger hov taxi bus coach delivery truck trailer motorcycle evehicle custom1 custom2" oneway="1"/>
    <type id="highway.motorway_link" priority="9" speed="22.22" allow="private emergency authority army vip passenger hov taxi bus coach delivery truck trailer motorcycle evehicle custom1 custom2" oneway="1"/>
    <type id="highway.path" priority="1" speed="2.78" allow="pedestrian bicycle" oneway="0" width="2.00"/>
    <type id="highway.pedestrian" priority="1" speed="2.78" allow="pedestrian" oneway="1" width="2.00"/>
    <type id="highway.primary" priority="12" speed="27.78" disallow="pedestrian tram rail_urban rail rail_electric rail_fast ship" oneway="0"/>
    <type id="highway.primary_link" priority="7" speed="22.22" disallow="pedestrian tram rail_urban rail rail_electric rail_fast ship" oneway="0"/>
    <type id="highway.raceway" priority="15" speed="83.33" allow="vip" oneway="0"/>
    <type id="highway.residential" priority="3" speed="13.89" disallow="pedestrian tram rail_urban rail rail_electric rail_fast ship" oneway="0"/>
    <type id="highway.secondary" priority="11" speed="27.78" disallow="pedestrian tram rail_urban rail rail_electric rail_fast ship" oneway="0"/>
    <type id="highway.secondary_link" priority="6" speed="22.22" disallow="pedestrian tram rail_urban rail rail_electric rail_fast ship" oneway="0"/>
    <type id="highway.service" priority="1" speed="5.56" allow="pedestrian delivery bicycle" oneway="0"/>
    <type id="highway.stairs" priority="1" speed="1.39" allow="pedestrian" oneway="1" width="2.00"/>
    <type id="highway.step" priority="1" speed="1.39" allow="pedestrian" oneway="1" width="2.00"/>
    <type id="highway.steps" priority="1" speed="1.39" allow="pedestrian" oneway="1" width="2.00"/>
    <type id="highway.tertiary" priority="10" speed="22.22" disallow="pedestrian tram rail_urban rail rail_electric rail_fast ship" oneway="0"/>
    <type id="highway.tertiary_link" priority="5" speed="22.22" disallow="pedestrian tram rail_urban rail rail_electric rail_fast ship" oneway="0"/>
    <type id="highway.track" priority="1" speed="5.56" allow="pedestrian motorcycle moped bicycle" oneway="0"/>
    <type id="highway.trunk" priority="13" speed="27.78" disallow="pedestrian bicycle tram rail_urban rail rail_electric rail_fast ship" oneway="0"/>
    <type id="highway.trunk_link" priority="8" speed="22.22" disallow="pedestrian bicycle tram rail_urban rail rail_electric rail_fast ship" oneway="0"/>
    <type id="highway.unclassified" priority="4" speed="13.89" disallow="pedestrian tram rail_urban rail rail_electric rail_fast ship" oneway="0"/>
    <type id="highway.unsurfaced" priority="1" speed="8.33" disallow="tram rail_urban rail rail_electric rail_fast ship" oneway="0"/>
    <type id="railway.highspeed" priority="21" speed="69.44" allow="rail_fast" oneway="1"/>
    <type id="railway.light_rail" priority="19" speed="27.78" allow="rail_urban" oneway="1"/>
    <type id="railway.preserved" priority="16" speed="27.78" allow="rail" oneway="1"/>
    <type id="railway.rail" priority="20" speed="44.44" allow="rail" oneway="1"/>
    <type id="railway.subway" priority="18" speed="27.78" allow="rail_urban" oneway="1"/>
    <type id="railway.tram" priority="17" speed="13.89" allow="tram" oneway="1"/>

    <edge id=":37_0" function="internal">
        <lane id=":37_0_0" index="0" disallow="pedestrian tram rail_urban rail rail_electric rail_fast ship" speed="12.46" length="30.18" width="3.50" shape="74.83,1011.92 75.02,1008.66 74.91,1006.51 74.58,1004.38 74.01,1002.30 73.19,1000.31 72.12,998.45 70.81,996.74 69.31,995.19 67.64,993.83 65.85,992.63 62.99,991.13 60.00,989.92 58.98,989.57"/>
    </edge>
    <edge id=":37_1" function="internal">
        <lane id=":37_1_0" index="0" disallow="pedestrian tram rail_urban rail rail_electric rail_fast ship" speed="36.11" length="38.18" width="3.50" shape="74.82,1011.92 76.13,1002.70 78.94,986.45 81.21,974.28"/>
    </edge>
    <edge id=":37_2" function="internal">
        <lane id=":37_2_0" index="0" disallow="pedestrian tram rail_urban rail rail_electric rail_fast ship" speed="36.11" length="37.89" width="3.50" shape="84.65,974.92 82.38,987.05 79.59,1003.21 78.31,1012.27"/>
    </edge>
    <edge id=":37_3" function="internal">
        <lane id=":37_3_0" index="0" disallow="pedestrian tram rail_urban rail rail_electric rail_fast ship" speed="11.81" length="35.01" width="3.50" shape="84.65,974.92 84.05,977.58 83.26,980.15 82.21,982.63 80.87,984.96 80.07,986.04 79.18,987.05 78.20,987.97 77.14,988.79 75.99,989.50 74.78,990.09 73.52,990.55 72.22,990.90 70.89,991.12 68.21,991.28 65.52,991.09 62.87,990.63 58.98,989.57"/>
    </edge>
    <edge id=":37_4" function="internal">
        <lane id=":37_4_0" index="0" disallow="pedestrian tram rail_urban rail rail_electric rail_fast ship" speed="10.78" length="28.95" width="3.50" shape="60.03,986.23 63.44,987.17 65.69,987.55 67.94,987.72 70.18,987.59 71.22,987.42 72.25,987.15 73.24,986.79 74.19,986.33 75.08,985.78 75.91,985.15 76.68,984.42 77.39,983.62 78.02,982.78 79.14,980.84 80.02,978.76 80.70,976.56 81.21,974.28"/>
    </edge>
    <edge id=":37_5" function="internal">
        <lane id=":37_5_0" index="0" disallow="pedestrian tram rail_urban rail rail_electric rail_fast ship" speed="13.39" length="35.00" width="3.50" shape="60.03,986.23 61.23,986.64 64.60,988.01 67.84,989.73 69.92,991.13 71.85,992.73 73.61,994.55 75.14,996.59 76.40,998.81 77.37,1001.17 78.02,1003.61 78.40,1006.10 78.52,1008.61 78.31,1012.27"/>
    </edge>
    <edge id=":38_0" function="internal">
        <lane id=":38_0_0" index="0" disallow="pedestrian tram rail_urban rail rail_electric rail_fast ship" speed="11.35" length="29.59" width="3.50" shape="30.52,980.86 29.43,980.55 27.28,980.14 25.12,980.03 24.11,980.11 23.09,980.28 22.10,980.55 21.14,980.91 20.21,981.36 19.32,981.90 18.47,982.52 17.69,983.20 16.19,984.80 14.90,986.58 13.76,988.51 12.76,990.54 11.48,993.75 10.42,997.08"/>
    </edge>
    <edge id=":38_1" function="internal">
        <lane id=":38_1_0" index="0" disallow="pedestrian tram rail_urban rail rail_electric rail_fast ship" speed="36.11" length="34.81" width="3.43" shape="30.52,980.86 28.53,980.28 23.53,979.14 9.07,976.82 3.84,975.66 -0.30,974.38 -3.34,973.16"/>
    </edge>
    <edge id=":38_2" function="internal">
        <lane id=":38_2_0" index="0" disallow="pedestrian tram rail_urban rail rail_electric rail_fast ship" speed="36.11" length="34.38" width="3.50" shape="-1.95,969.95 0.98,971.13 4.96,972.35 10.04,973.47 24.43,975.77 29.50,976.92 31.50,977.50"/>
    </edge>
    <edge id=":38_3" function="internal">
        <lane id=":38_3_0" index="0" disallow="pedestrian tram rail_urban rail rail_electric rail_fast ship" speed="12.64" length="33.22" width="3.50" shape="-1.95,969.95 1.49,971.71 3.63,973.10 5.62,974.70 7.40,976.53 8.92,978.57 10.13,980.81 11.00,983.21 11.52,985.71 11.71,988.25 11.62,990.80 11.29,993.33 10.42,997.08"/>
    </edge>
    <edge id=":38_4" function="internal">
        <lane id=":38_4_0" index="0" disallow="pedestrian tram rail_urban rail rail_electric rail_fast ship" speed="11.66" length="28.14" width="3.43" shape="7.05,996.13 7.82,992.83 8.11,990.66 8.19,988.49 8.03,986.35 7.60,984.27 6.89,982.29 5.90,980.45 4.64,978.76 3.15,977.23 1.46,975.87 -0.36,974.69 -3.34,973.16"/>
    </edge>
    <edge id=":38_5" function="internal">
        <lane id=":38_5_0" index="0" disallow="pedestrian tram rail_urban rail rail_electric rail_fast ship" speed="12.34" length="35.20" width="3.50" shape="7.05,996.13 8.25,992.37 9.72,988.75 10.89,986.42 12.24,984.20 13.80,982.12 15.62,980.25 16.62,979.42 17.69,978.67 18.82,978.03 20.01,977.49 21.24,977.06 22.50,976.76 23.79,976.57 25.09,976.49 27.69,976.65 30.25,977.15 31.50,977.50"/>
    </edge>
    <edge id=":39_0" function="internal">
        <lane id=":39_0_0" index="0" disallow="pedestrian tram rail_urban rail rail_electric rail_fast ship" speed="10.80" length="29.44" width="3.50" shape="105.91,962.18 103.64,961.50 101.35,960.99 99.07,960.70 96.78,960.70 95.70,960.82 94.63,961.02 93.60,961.32 92.60,961.72 91.66,962.22 90.77,962.81 89.95,963.49 89.19,964.26 88.49,965.10 87.85,966.01 87.29,966.96 86.30,969.06 85.53,971.24 84.69,974.73"/>
    </edge>
    <edge id=":39_1" function="internal">
        <lane id=":39_1_0" index="0" disallow="pedestrian tram rail_urban rail rail_electric rail_fast ship" speed="13.11" length="35.03" width="3.50" shape="105.91,962.18 102.51,960.88 99.23,959.28 97.11,957.99 95.10,956.51 93.24,954.81 91.57,952.88 90.16,950.74 89.06,948.43 88.28,945.99 87.82,943.49 87.66,940.97 87.77,938.48 88.08,936.05"/>
    </edge>
    <edge id=":39_2" function="internal">
        <lane id=":39_2_0" index="0" disallow="pedestrian tram rail_urban rail rail_electric rail_fast ship" speed="12.18" length="30.07" width="3.50" shape="91.53,936.61 91.26,938.74 91.18,940.89 91.32,943.03 91.71,945.14 92.38,947.18 93.33,949.11 94.52,950.89 95.95,952.51 97.54,953.94 99.28,955.21 101.12,956.32 104.02,957.72 107.03,958.87"/>
    </edge>
    <edge id=":39_3" function="internal">
        <lane id=":39_3_0" index="0" disallow="pedestrian tram rail_urban rail rail_electric rail_fast ship" speed="36.11" length="38.73" width="3.50" shape="91.53,936.61 89.39,948.98 84.69,974.73"/>
    </edge>
    <edge id=":39_4" function="internal">
        <lane id=":39_4_0" index="0" disallow="pedestrian tram rail_urban rail rail_electric rail_fast ship" speed="36.11" length="38.65" width="3.50" shape="81.25,974.09 85.94,948.37 88.08,936.05"/>
    </edge>
    <edge id=":39_5" function="internal">
        <lane id=":39_5_0" index="0" disallow="pedestrian tram rail_urban rail rail_electric rail_fast ship" speed="11.84" length="35.58" width="3.50" shape="81.25,974.09 82.23,970.06 83.13,967.48 84.30,965.01 85.00,963.84 85.78,962.72 86.65,961.66 87.61,960.70 88.67,959.83 89.81,959.07 91.02,958.43 92.28,957.92 93.60,957.54 94.94,957.29 96.30,957.14 99.03,957.15 101.74,957.49 104.41,958.08 107.03,958.87"/>
    </edge>
    <edge id=":40_0" function="internal">
        <lane id=":40_0_0" index="0" disallow="pedestrian tram rail_urban rail rail_electric rail_fast ship" speed="36.11" length="38.99" width="3.50" shape="183.20,988.86 161.95,981.20 146.44,975.86"/>
    </edge>
    <edge id=":40_1" function="internal">
        <lane id=":40_1_0" index="0" disallow="pedestrian tram rail_urban rail rail_electric rail_fast ship" speed="36.11" length="39.07" width="3.50" shape="147.56,972.54 163.11,977.89 184.39,985.57"/>
    </edge>
    <edge id=":40_2" function="internal">
        <lane id=":40_2_0" index="0" disallow="pedestrian tram rail_urban rail rail_electric rail_fast ship" speed="12.02" length="34.19" width="3.50" shape="147.56,972.54 151.09,973.94 153.39,975.14 155.58,976.58 157.57,978.29 158.51,979.30 159.34,980.36 160.09,981.50 160.74,982.70 161.27,983.96 161.69,985.26 161.99,986.58 162.19,987.94 162.27,990.56 162.03,993.16 161.53,995.71 160.41,999.35"/>
    </edge>
    <edge id=":40_3" function="internal">
        <lane id=":40_3_0" index="0" disallow="pedestrian tram rail_urban rail rail_electric rail_fast ship" speed="11.02" length="28.51" width="3.50" shape="157.13,998.15 158.09,995.00 158.52,992.85 158.72,990.67 158.65,988.47 158.49,987.39 158.24,986.32 157.91,985.28 157.48,984.27 156.96,983.30 156.36,982.38 155.68,981.52 154.93,980.72 153.27,979.29 151.44,978.08 149.49,977.07 146.44,975.86"/>
    </edge>

    <edge id="4156" from="37" to="5" priority="3" type="highway.residential" spreadType="center" length="69.99" shape="74.75,991.40 80.04,1082.15">
        <lane id="4156_0" index="0" disallow="pedestrian tram rail_urban rail rail_electric rail_fast ship" speed="36.11" length="69.99" width="3.50" customShape="1" shape="78.31,1012.27 77.55,1019.79 77.31,1025.82 77.43,1033.86 78.37,1050.93 79.97,1080.55 80.04,1082.15"/>
    </edge>
    <edge id="4157" from="24" to="37" priority="3" type="highway.residential" spreadType="center" length="70.01" shape="76.52,1081.78 71.25,991.60">
        <lane id="4157_0" index="0" disallow="pedestrian tram rail_urban rail rail_electric rail_fast ship" speed="36.11" length="70.01" width="3.50" customShape="1" shape="76.52,1081.78 76.46,1080.57 74.86,1050.90 73.92,1033.76 73.81,1025.62 74.06,1019.48 74.83,1011.89"/>
    </edge>
    <edge id="4159" from="39" to="37" priority="3" type="highway.residential" spreadType="center" length="0.22" shape="94.63,957.90 74.51,992.41">
        <lane id="4159_0" index="0" disallow="pedestrian tram rail_urban rail rail_electric rail_fast ship" speed="36.11" length="0.22" width="3.50" customShape="1" shape="84.69,974.73 84.65,974.95"/>
    </edge>
    <edge id="4160" from="37" to="39" priority="3" type="highway.residential" spreadType="center" length="0.24" shape="71.49,990.65 91.61,956.14">
        <lane id="4160_0" index="0" disallow="pedestrian tram rail_urban rail rail_electric rail_fast ship" speed="36.11" length="0.24" width="3.50" customShape="1" shape="81.21,974.28 81.23,974.17 81.26,974.05"/>
    </edge>
    <edge id="4162" from="28" to="39" priority="3" type="highway.residential" spreadType="center" length="24.39" shape="95.63,912.60 94.83,957.18">
        <lane id="4162_0" index="0" disallow="pedestrian tram rail_urban rail rail_electric rail_fast ship" speed="36.11" length="24.39" width="3.50" customShape="1" shape="95.63,912.60 93.58,924.61 91.53,936.64"/>
    </edge>
    <edge id="4163" from="39" to="14" priority="3" type="highway.residential" spreadType="center" length="24.39" shape="91.33,957.12 92.18,912.01">
        <lane id="4163_0" index="0" disallow="pedestrian tram rail_urban rail rail_electric rail_fast ship" speed="36.11" length="24.39" width="3.50" customShape="1" shape="88.08,936.05 90.13,924.02 92.18,912.01"/>
    </edge>
    <edge id="4171" from="38" to="37" priority="3" type="highway.residential" spreadType="center" length="29.85" shape="12.58,980.71 73.26,989.80">
        <lane id="4171_0" index="0" disallow="pedestrian tram rail_urban rail rail_electric rail_fast ship" speed="36.11" length="29.85" width="3.50" customShape="1" shape="31.50,977.50 42.68,980.76 60.04,986.24"/>
    </edge>
    <edge id="4172" from="37" to="38" priority="3" type="highway.residential" spreadType="center" length="29.79" shape="72.74,993.26 12.06,984.17">
        <lane id="4172_0" index="0" disallow="pedestrian tram rail_urban rail rail_electric rail_fast ship" speed="36.11" length="29.79" width="3.50" customShape="1" shape="58.98,989.57 41.64,984.10 30.49,980.86"/>
    </edge>
    <edge id="4212" from="40" to="33" priority="3" type="highway.residential" spreadType="center" length="69.99" shape="163.64,985.03 250.03,1009.87">
        <lane id="4212_0" index="0" disallow="pedestrian tram rail_urban rail rail_electric rail_fast ship" speed="36.11" length="69.99" width="3.50" customShape="1" shape="184.39,985.57 230.74,1002.73 250.03,1009.87"/>
    </edge>
    <edge id="4213" from="36" to="40" priority="3" type="highway.residential" spreadType="center" length="70.03" shape="248.84,1013.16 162.68,988.39">
        <lane id="4213_0" index="0" disallow="pedestrian tram rail_urban rail rail_electric rail_fast ship" speed="36.11" length="70.03" width="3.50" customShape="1" shape="248.84,1013.16 229.52,1006.01 183.17,988.85"/>
    </edge>
    <edge id="4215" from="39" to="40" priority="3" type="highway.residential" spreadType="center" length="42.80" shape="93.76,955.47 163.91,985.13">
        <lane id="4215_0" index="0" disallow="pedestrian tram rail_urban rail rail_electric rail_fast ship" speed="36.11" length="42.80" width="3.50" customShape="1" shape="107.03,958.87 127.29,965.70 147.59,972.55"/>
    </edge>
    <edge id="4216" from="40" to="39" priority="3" type="highway.residential" spreadType="center" length="42.78" shape="162.55,988.35 92.40,958.69">
        <lane id="4216_0" index="0" disallow="pedestrian tram rail_urban rail rail_electric rail_fast ship" speed="36.11" length="42.78" width="3.50" customShape="1" shape="146.44,975.86 126.17,969.02 105.91,962.18"/>
    </edge>
    <edge id="4236" from="38" to="23" priority="3" type="highway.residential" spreadType="center" length="23.10" shape="14.07,982.83 4.06,1019.29">
        <lane id="4236_0" index="0" disallow="pedestrian tram rail_urban rail rail_electric rail_fast ship" speed="36.11" length="23.10" width="3.50" customShape="1" shape="10.42,997.08 7.24,1008.17 4.06,1019.29"/>
    </edge>
    <edge id="4237" from="29" to="38" priority="3" type="highway.residential" spreadType="center" length="23.10" shape="0.69,1018.32 10.70,981.91">
        <lane id="4237_0" index="0" disallow="pedestrian tram rail_urban rail rail_electric rail_fast ship" speed="36.11" length="23.10" width="3.50" customShape="1" shape="0.69,1018.32 3.88,1007.21 7.06,996.12"/>
    </edge>
    <edge id="4239" from="30" to="38" priority="3" type="highway.residential" spreadType="center" length="69.99" shape="-52.28,987.42 12.23,980.71">
        <lane id="4239_0" index="0" disallow="pedestrian tram rail_urban rail rail_electric rail_fast ship" speed="36.11" length="69.99" width="3.50" customShape="1" shape="-52.28,987.42 -50.38,981.16 -47.63,972.60 -44.90,965.15 -44.18,963.73 -43.14,962.54 -42.32,961.88 -41.41,961.34 -40.44,960.92 -38.90,960.56 -35.73,960.40 -31.50,960.55 -27.30,961.07 -22.64,962.05 -17.57,963.55 -11.62,965.77 -1.92,969.96"/>
    </edge>
    <edge id="4240" from="38" to="22" priority="3" type="highway.residential" spreadType="center" length="70.00" shape="12.68,984.14 -50.64,994.12">
        <lane id="4240_0" index="0" disallow="pedestrian tram rail_urban rail rail_electric rail_fast ship" speed="36.11" length="70.00" width="3.43" customShape="1" shape="-3.34,973.16 -12.62,969.14 -18.24,967.02 -22.99,965.58 -27.32,964.62 -31.21,964.09 -35.12,963.90 -38.03,964.01 -39.16,964.19 -39.78,964.43 -40.38,964.78 -40.86,965.15 -41.54,966.25 -42.02,967.48 -44.59,974.51 -47.19,982.71 -50.64,994.12"/>
    </edge>
    <edge id="4245" from="35" to="40" priority="3" type="highway.residential" spreadType="center" length="70.04" shape="125.47,1060.43 161.64,985.93">
        <lane id="4245_0" index="0" disallow="pedestrian tram rail_urban rail rail_electric rail_fast ship" speed="36.11" length="70.04" width="3.50" customShape="1" shape="125.47,1060.43 134.43,1045.15 141.20,1033.39 145.92,1024.51 149.85,1016.36 153.21,1008.49 157.14,998.11"/>
    </edge>
    <edge id="4246" from="40" to="34" priority="3" type="highway.residential" spreadType="center" length="69.99" shape="164.78,987.45 128.81,1061.65">
        <lane id="4246_0" index="0" disallow="pedestrian tram rail_urban rail rail_electric rail_fast ship" speed="36.11" length="69.99" width="3.50" customShape="1" shape="160.41,999.35 156.46,1009.78 153.07,1017.75 149.09,1026.00 144.32,1034.97 137.51,1046.81 128.81,1061.65"/>
    </edge>

    <junction id="14" type="dead_end" x="92.18" y="912.01" incLanes="4163_0" intLanes="" shape="90.46,911.72 93.91,912.31" rightOfWay="edgePriority"/>
    <junction id="22" type="dead_end" x="-50.64" y="994.12" incLanes="4240_0" intLanes="" shape="-49.00,994.62 -52.28,993.62" rightOfWay="edgePriority"/>
    <junction id="23" type="dead_end" x="4.06" y="1019.29" incLanes="4236_0" intLanes="" shape="5.74,1019.77 2.37,1018.81" rightOfWay="edgePriority"/>
    <junction id="24" type="dead_end" x="76.52" y="1081.78" incLanes="" intLanes="" shape="78.26,1081.70 74.77,1081.85" rightOfWay="edgePriority"/>
    <junction id="28" type="dead_end" x="95.63" y="912.60" incLanes="" intLanes="" shape="93.91,912.31 97.36,912.90" rightOfWay="edgePriority"/>
    <junction id="29" type="dead_end" x="0.69" y="1018.32" incLanes="" intLanes="" shape="2.37,1018.81 -0.99,1017.84" rightOfWay="edgePriority"/>
    <junction id="30" type="dead_end" x="-52.28" y="987.42" incLanes="" intLanes="" shape="-50.60,987.93 -53.95,986.92" rightOfWay="edgePriority"/>
    <junction id="33" type="dead_end" x="250.03" y="1009.87" incLanes="4212_0" intLanes="" shape="250.64,1008.23 249.43,1011.51" rightOfWay="edgePriority"/>
    <junction id="34" type="dead_end" x="128.81" y="1061.65" incLanes="4246_0" intLanes="" shape="130.31,1062.54 127.30,1060.77" rightOfWay="edgePriority"/>
    <junction id="35" type="dead_end" x="125.47" y="1060.43" incLanes="" intLanes="" shape="126.98,1061.31 123.96,1059.54" rightOfWay="edgePriority"/>
    <junction id="36" type="dead_end" x="248.84" y="1013.16" incLanes="" intLanes="" shape="249.45,1011.52 248.23,1014.80" rightOfWay="edgePriority"/>
    <junction id="37" type="priority" x="73.00" y="991.53" incLanes="4157_0 4159_0 4171_0" intLanes=":37_0_0 :37_1_0 :37_2_0 :37_3_0 :37_4_0 :37_5_0" shape="73.08,1011.74 80.05,1012.44 86.37,975.24 79.49,973.95 78.15,978.60 76.09,982.09 73.29,984.44 69.77,985.63 65.53,985.67 60.56,984.57 58.45,991.24 63.35,993.23 67.27,995.79 70.20,998.92 72.15,1002.62 73.11,1006.90">
        <request index="0" response="000000" foes="001000" cont="0"/>
        <request index="1" response="000000" foes="111000" cont="0"/>
        <request index="2" response="000000" foes="100000" cont="0"/>
        <request index="3" response="000011" foes="100011" cont="0"/>
        <request index="4" response="000010" foes="000010" cont="0"/>
        <request index="5" response="001110" foes="001110" cont="0"/>
    </junction>
    <junction id="38" type="priority" x="12.37" y="982.45" incLanes="4172_0 4239_0 4237_0" intLanes=":38_0_0 :38_1_0 :38_2_0 :38_3_0 :38_4_0 :38_5_0" shape="30.03,982.54 31.99,975.82 24.93,974.09 19.57,973.27 15.10,972.83 10.68,972.23 5.50,970.92 -1.26,968.34 -4.02,974.73 0.04,976.96 3.10,979.69 5.17,982.92 6.24,986.66 6.30,990.90 5.37,995.63 12.10,997.56 14.09,991.96 16.47,987.59 19.26,984.47 22.45,982.59 26.04,981.94">
        <request index="0" response="000000" foes="001000" cont="0"/>
        <request index="1" response="000000" foes="111000" cont="0"/>
        <request index="2" response="000000" foes="100000" cont="0"/>
        <request index="3" response="000011" foes="100011" cont="0"/>
        <request index="4" response="000010" foes="000010" cont="0"/>
        <request index="5" response="001110" foes="001110" cont="0"/>
    </junction>
    <junction id="39" type="priority" x="93.08" y="957.08" incLanes="4216_0 4162_0 4160_0" intLanes=":39_0_0 :39_1_0 :39_2_0 :39_3_0 :39_4_0 :39_5_0" shape="105.35,963.84 107.59,957.21 102.52,955.07 98.52,952.43 95.59,949.30 93.74,945.67 92.96,941.55 93.25,936.93 86.35,935.75 79.53,973.76 86.41,975.05 87.80,970.14 89.89,966.45 92.70,963.97 96.21,962.71 100.43,962.67">
        <request index="0" response="001000" foes="001000" cont="0"/>
        <request index="1" response="111000" foes="111000" cont="0"/>
        <request index="2" response="000000" foes="100000" cont="0"/>
        <request index="3" response="000000" foes="100011" cont="0"/>
        <request index="4" response="000000" foes="000010" cont="0"/>
        <request index="5" response="001100" foes="001110" cont="0"/>
    </junction>
    <junction id="40" type="priority" x="163.19" y="986.72" incLanes="4213_0 4215_0 4245_0" intLanes=":40_0_0 :40_1_0 :40_2_0 :40_3_0" shape="182.56,990.49 184.99,983.93 148.12,970.88 145.88,977.51 150.38,979.50 153.73,982.02 155.91,985.08 156.94,988.68 156.80,992.82 155.51,997.49 162.05,999.97 164.20,995.55 166.85,992.26 170.02,990.11 173.69,989.10 177.87,989.23">
        <request index="0" response="0000" foes="1100" cont="0"/>
        <request index="1" response="0000" foes="0000" cont="0"/>
        <request index="2" response="0001" foes="0001" cont="0"/>
        <request index="3" response="0001" foes="0001" cont="0"/>
    </junction>
    <junction id="5" type="dead_end" x="80.04" y="1082.15" incLanes="4156_0" intLanes="" shape="81.79,1082.08 78.29,1082.23" rightOfWay="edgePriority"/>

    <connection from="4157" to="4172" fromLane="0" toLane="0" contPos="-4.00" shape="74.83,1011.89 75.02,1008.66 74.91,1006.51 74.58,1004.38 74.01,1002.30 73.19,1000.31 72.12,998.45 70.81,996.74 69.31,995.19 67.64,993.83 65.85,992.63 62.99,991.13 60.00,989.92 58.98,989.57" via=":37_0_0" dir="r" state="M"/>
    <connection from="4157" to="4160" fromLane="0" toLane="0" contPos="-4.00" shape="74.83,1011.89 76.13,1002.70 78.94,986.45 81.21,974.28" via=":37_1_0" dir="s" state="M"/>
    <connection from="4159" to="4156" fromLane="0" toLane="0" contPos="-4.00" shape="84.65,974.95 82.38,987.05 79.59,1003.21 78.31,1012.27" via=":37_2_0" dir="s" state="M"/>
    <connection from="4159" to="4172" fromLane="0" toLane="0" contPos="-4.00" shape="84.65,974.95 84.05,977.58 83.26,980.15 82.21,982.63 80.87,984.96 80.07,986.04 79.18,987.05 78.20,987.97 77.14,988.79 75.99,989.50 74.78,990.09 73.52,990.55 72.22,990.90 70.89,991.12 68.21,991.28 65.52,991.09 62.87,990.63 58.98,989.57" via=":37_3_0" dir="l" state="m"/>
    <connection from="4160" to="4163" fromLane="0" toLane="0" contPos="-4.00" shape="81.26,974.05 85.94,948.37 88.08,936.05" via=":39_4_0" dir="s" state="M"/>
    <connection from="4160" to="4215" fromLane="0" toLane="0" contPos="-4.00" shape="81.26,974.05 82.23,970.06 83.13,967.48 84.30,965.01 85.00,963.84 85.78,962.72 86.65,961.66 87.61,960.70 88.67,959.83 89.81,959.07 91.02,958.43 92.28,957.92 93.60,957.54 94.94,957.29 96.30,957.14 99.03,957.15 101.74,957.49 104.41,958.08 107.03,958.87" via=":39_5_0" dir="l" state="m"/>
    <connection from="4162" to="4215" fromLane="0" toLane="0" contPos="-4.00" shape="91.53,936.61 91.26,938.74 91.18,940.89 91.32,943.03 91.71,945.14 92.38,947.18 93.33,949.11 94.52,950.89 95.95,952.51 97.54,953.94 99.28,955.21 101.12,956.32 104.02,957.72 107.03,958.87" via=":39_2_0" dir="r" state="M"/>
    <connection from="4162" to="4159" fromLane="0" toLane="0" contPos="-4.00" shape="91.53,936.61 89.39,948.98 84.69,974.73" via=":39_3_0" dir="s" state="M"/>
    <connection from="4171" to="4160" fromLane="0" toLane="0" contPos="-4.00" shape="60.04,986.24 63.44,987.17 65.69,987.55 67.94,987.72 70.18,987.59 71.22,987.42 72.25,987.15 73.24,986.79 74.19,986.33 75.08,985.78 75.91,985.15 76.68,984.42 77.39,983.62 78.02,982.78 79.14,980.84 80.02,978.76 80.70,976.56 81.21,974.28" via=":37_4_0" dir="r" state="m"/>
    <connection from="4171" to="4156" fromLane="0" toLane="0" contPos="-4.00" shape="60.04,986.24 61.23,986.64 64.60,988.01 67.84,989.73 69.92,991.13 71.85,992.73 73.61,994.55 75.14,996.59 76.40,998.81 77.37,1001.17 78.02,1003.61 78.40,1006.10 78.52,1008.61 78.31,1012.27" via=":37_5_0" dir="l" state="m"/>
    <connection from="4172" to="4236" fromLane="0" toLane="0" contPos="-4.00" shape="30.49,980.86 29.43,980.55 27.28,980.14 25.12,980.03 24.11,980.11 23.09,980.28 22.10,980.55 21.14,980.91 20.21,981.36 19.32,981.90 18.47,982.52 17.69,983.20 16.19,984.80 14.90,986.58 13.76,988.51 12.76,990.54 11.48,993.75 10.42,997.08" via=":38_0_0" dir="r" state="M"/>
    <connection from="4172" to="4240" fromLane="0" toLane="0" contPos="-4.00" shape="30.49,980.86 28.53,980.28 23.53,979.14 9.07,976.82 3.84,975.66 -0.30,974.38 -3.34,973.16" via=":38_1_0" dir="s" state="M"/>
    <connection from="4213" to="4216" fromLane="0" toLane="0" contPos="-4.00" shape="183.20,988.86 161.95,981.20 146.44,975.86" via=":40_0_0" dir="s" state="M"/>
    <connection from="4215" to="4212" fromLane="0" toLane="0" contPos="-4.00" shape="147.59,972.55 163.11,977.89 184.39,985.57" via=":40_1_0" dir="s" state="M"/>