<routes>
	<vehicle depart="0.1" departLane="0" departPos="8.381151990690203" departSpeed="0.0" id="311" type="bicycle">
		<route edges=":37_5 4156"/>
	</vehicle>
	<vehicle depart="0.1" departLane="0" departPos="1.0" departSpeed="3.5765035" id="333" type="bicycle">
		<route edges=":37_5 4156"/>
	</vehicle>
	<vehicle depart="0.1" departLane="0" departPos="42.67144770542789" departSpeed="0.0" id="31" type="passenger">
		<route edges="4216 4163"/>
	</vehicle>
	<vehicle depart="0.1" departLane="0" departPos="8.82146297024819" departSpeed="6.9482029" id="32" type="passenger">
		<route edges=":37_3 4172"/>
	</vehicle>
	<vehicle depart="0.1" departLane="0" departPos="35.169306016389086" departSpeed="0.0" id="34" type="passenger">
		<route edges="4216 4163"/>
	</vehicle>
	<vehicle depart="0.1" departLane="0" departPos="2.5" departSpeed="0.023762587" id="36" type="passenger">
		<route edges=":39_2 4215"/>
	</vehicle>
	<vehicle depart="0.1" departLane="0" departPos="22.45493086798734" departSpeed="3.660855" id="313" type="passenger">
		<route edges=":37_4 4160 4215"/>
	</vehicle>
	<vehicle depart="0.1" departLane="0" departPos="22.117266585303206" departSpeed="8.2217821" id="319" type="passenger">
		<route edges=":37_3 4172 4236"/>
	</vehicle>
	<vehicle depart="0.1" departLane="0" departPos="2.5" departSpeed="0.50798724" id="320" type="passenger">
		<route edges="4162 4159"/>
	</vehicle>
	<vehicle depart="0.1" departLane="0" departPos="21.267751311099847" departSpeed="4.623578" id="35" type="motorcycle">
		<route edges=":39_3 4159"/>
	</vehicle>
</routes>
