<!-- generated on Tue Feb  9 22:22:26 2021 by Eclipse SUMO netconvert Version 1.8.0
<configuration xmlns:xsi="http://www.w3.org/2001/XMLSchema-instance" xsi:noNamespaceSchemaLocation="http://sumo.dlr.de/xsd/netconvertConfiguration.xsd">

    <input>
        <node-files value="./converted_scenarios/scenario-factory/BEL_Putte-7_1_I-1-1/BEL_Putte-7_1_I-1-1.nod.xml"/>
        <edge-files value="./converted_scenarios/scenario-factory/BEL_Putte-7_1_I-1-1/BEL_Putte-7_1_I-1-1.edg.xml"/>
        <connection-files value="./converted_scenarios/scenario-factory/BEL_Putte-7_1_I-1-1/BEL_Putte-7_1_I-1-1.con.xml"/>
        <tllogic-files value="./converted_scenarios/scenario-factory/BEL_Putte-7_1_I-1-1/BEL_Putte-7_1_I-1-1.tll.xml"/>
        <type-files value="/home/zen/commonroad-interactive-benchmarks/install/commonroad-map-tool/crmapconverter/sumo_map/templates/DEU.typ.xml"/>
    </input>

    <output>
        <output-file value="./converted_scenarios/scenario-factory/BEL_Putte-7_1_I-1-1/BEL_Putte-7_1_I-1-1.net.xml"/>
    </output>

    <processing>
        <geometry.remove.keep-edges.explicit value="true"/>
        <geometry.avoid-overlap value="true"/>
        <offset.disable-normalization value="true"/>
    </processing>

    <junctions>
        <no-turnarounds value="true"/>
        <junctions.internal-link-detail value="20"/>
    </junctions>

    <report>
        <aggregate-warnings value="5"/>
    </report>

    <random_number>
        <seed value="1234"/>
    </random_number>

</configuration>
--><net xmlns:xsi="http://www.w3.org/2001/XMLSchema-instance" version="1.6" junctionCornerDetail="5" junctionLinkDetail="20" limitTurnSpeed="5.50" xsi:noNamespaceSchemaLocation="http://sumo.dlr.de/xsd/net_file.xsd">

    <location netOffset="0.00,0.00" convBoundary="-358.85,-615.89,-95.93,-428.26" origBoundary="-358.85,-615.89,-95.93,-428.26" projParameter="!"/>

    <type id="highway.bridleway" priority="1" speed="2.78" allow="pedestrian" oneway="1" width="2.00"/>
    <type id="highway.bus_guideway" priority="1" speed="27.78" allow="bus" oneway="1"/>
    <type id="highway.cycleway" priority="1" speed="8.33" allow="bicycle" oneway="0" width="1.00"/>
    <type id="highway.footway" priority="1" speed="2.78" allow="pedestrian" oneway="1" width="2.00"/>
    <type id="highway.ford" priority="1" speed="2.78" allow="army" oneway="0"/>
    <type id="highway.living_street" priority="2" speed="2.78" disallow="tram rail_urban rail rail_electric rail_fast ship" oneway="0"/>
    <type id="highway.motorway" priority="14" speed="39.44" allow="private emergency authority army vip passenger hov taxi bus coach delivery truck trailer motorcycle evehicle custom1 custom2" oneway="1"/>
    <type id="highway.motorway_link" priority="9" speed="22.22" allow="private emergency authority army vip passenger hov taxi bus coach delivery truck trailer motorcycle evehicle custom1 custom2" oneway="1"/>
    <type id="highway.path" priority="1" speed="2.78" allow="pedestrian bicycle" oneway="0" width="2.00"/>
    <type id="highway.pedestrian" priority="1" speed="2.78" allow="pedestrian" oneway="1" width="2.00"/>
    <type id="highway.primary" priority="12" speed="27.78" disallow="pedestrian tram rail_urban rail rail_electric rail_fast ship" oneway="0"/>
    <type id="highway.primary_link" priority="7" speed="22.22" disallow="pedestrian tram rail_urban rail rail_electric rail_fast ship" oneway="0"/>
    <type id="highway.raceway" priority="15" speed="83.33" allow="vip" oneway="0"/>
    <type id="highway.residential" priority="3" speed="13.89" disallow="pedestrian tram rail_urban rail rail_electric rail_fast ship" oneway="0"/>
    <type id="highway.secondary" priority="11" speed="27.78" disallow="pedestrian tram rail_urban rail rail_electric rail_fast ship" oneway="0"/>
    <type id="highway.secondary_link" priority="6" speed="22.22" disallow="pedestrian tram rail_urban rail rail_electric rail_fast ship" oneway="0"/>
    <type id="highway.service" priority="1" speed="5.56" allow="pedestrian delivery bicycle" oneway="0"/>
    <type id="highway.stairs" priority="1" speed="1.39" allow="pedestrian" oneway="1" width="2.00"/>
    <type id="highway.step" priority="1" speed="1.39" allow="pedestrian" oneway="1" width="2.00"/>
    <type id="highway.steps" priority="1" speed="1.39" allow="pedestrian" oneway="1" width="2.00"/>
    <type id="highway.tertiary" priority="10" speed="22.22" disallow="pedestrian tram rail_urban rail rail_electric rail_fast ship" oneway="0"/>
    <type id="highway.tertiary_link" priority="5" speed="22.22" disallow="pedestrian tram rail_urban rail rail_electric rail_fast ship" oneway="0"/>
    <type id="highway.track" priority="1" speed="5.56" allow="pedestrian motorcycle moped bicycle" oneway="0"/>
    <type id="highway.trunk" priority="13" speed="27.78" disallow="pedestrian bicycle tram rail_urban rail rail_electric rail_fast ship" oneway="0"/>
    <type id="highway.trunk_link" priority="8" speed="22.22" disallow="pedestrian bicycle tram rail_urban rail rail_electric rail_fast ship" oneway="0"/>
    <type id="highway.unclassified" priority="4" speed="13.89" disallow="pedestrian tram rail_urban rail rail_electric rail_fast ship" oneway="0"/>
    <type id="highway.unsurfaced" priority="1" speed="8.33" disallow="tram rail_urban rail rail_electric rail_fast ship" oneway="0"/>
    <type id="railway.highspeed" priority="21" speed="69.44" allow="rail_fast" oneway="1"/>
    <type id="railway.light_rail" priority="19" speed="27.78" allow="rail_urban" oneway="1"/>
    <type id="railway.preserved" priority="16" speed="27.78" allow="rail" oneway="1"/>
    <type id="railway.rail" priority="20" speed="44.44" allow="rail" oneway="1"/>
    <type id="railway.subway" priority="18" speed="27.78" allow="rail_urban" oneway="1"/>
    <type id="railway.tram" priority="17" speed="13.89" allow="tram" oneway="1"/>

    <edge id=":37_0" function="internal">
        <lane id=":37_0_0" index="0" disallow="pedestrian tram rail_urban rail rail_electric rail_fast ship" speed="36.11" length="38.57" width="3.50" shape="-270.31,-481.56 -290.52,-501.15 -297.40,-507.53 -298.20,-508.19"/>
    </edge>
    <edge id=":37_1" function="internal">
        <lane id=":37_1_0" index="0" disallow="pedestrian tram rail_urban rail rail_electric rail_fast ship" speed="11.92" length="35.30" width="3.50" shape="-270.31,-481.56 -272.19,-483.52 -273.90,-485.62 -275.41,-487.88 -276.63,-490.30 -277.11,-491.57 -277.48,-492.87 -277.72,-494.21 -277.84,-495.56 -277.82,-496.91 -277.66,-498.26 -277.37,-499.58 -276.96,-500.88 -276.43,-502.13 -275.10,-504.49 -273.48,-506.66 -271.65,-508.66 -268.59,-511.40"/>
    </edge>
    <edge id=":37_2" function="internal">
        <lane id=":37_2_0" index="0" disallow="pedestrian tram rail_urban rail rail_electric rail_fast ship" speed="10.90" length="29.28" width="3.50" shape="-266.39,-508.68 -269.05,-506.30 -270.61,-504.60 -271.97,-502.78 -273.08,-500.81 -273.49,-499.83 -273.82,-498.80 -274.05,-497.76 -274.18,-496.71 -274.20,-495.65 -274.11,-494.58 -273.91,-493.53 -273.62,-492.49 -273.25,-491.48 -272.23,-489.46 -270.96,-487.56 -269.49,-485.76 -267.85,-484.04"/>
    </edge>
    <edge id=":37_3" function="internal">
        <lane id=":37_3_0" index="0" disallow="pedestrian tram rail_urban rail rail_electric rail_fast ship" speed="13.83" length="34.91" width="3.50" shape="-266.39,-508.68 -269.42,-506.44 -271.55,-505.15 -273.78,-504.04 -276.11,-503.14 -278.52,-502.50 -280.98,-502.15 -283.47,-502.10 -285.95,-502.36 -288.38,-502.92 -290.73,-503.74 -292.99,-504.79 -296.19,-506.72 -298.20,-508.19"/>
    </edge>
    <edge id=":37_4" function="internal">
        <lane id=":37_4_0" index="0" disallow="pedestrian tram rail_urban rail rail_electric rail_fast ship" speed="12.95" length="30.37" width="3.50" shape="-296.20,-511.06 -294.28,-509.65 -291.45,-507.95 -289.51,-507.04 -287.49,-506.34 -285.42,-505.87 -283.33,-505.65 -281.23,-505.69 -279.14,-505.99 -277.08,-506.54 -275.08,-507.31 -273.15,-508.28 -271.29,-509.41 -268.59,-511.40"/>
    </edge>
    <edge id=":37_5" function="internal">
        <lane id=":37_5_0" index="0" disallow="pedestrian tram rail_urban rail rail_electric rail_fast ship" speed="36.11" length="39.17" width="3.50" shape="-296.20,-511.06 -295.16,-510.22 -288.19,-503.77 -267.85,-484.04"/>
    </edge>
    <edge id=":38_0" function="internal">
        <lane id=":38_0_0" index="0" disallow="pedestrian tram rail_urban rail rail_electric rail_fast ship" speed="10.88" length="26.65" width="3.50" shape="-193.81,-544.73 -196.01,-547.02 -198.42,-549.13 -200.16,-550.36 -202.01,-551.43 -203.98,-552.25 -205.00,-552.56 -206.05,-552.77 -207.11,-552.90 -208.18,-552.93 -209.24,-552.86 -210.29,-552.70 -211.33,-552.44 -213.31,-551.65 -215.16,-550.59 -216.87,-549.31"/>
    </edge>
    <edge id=":38_1" function="internal">
        <lane id=":38_1_0" index="0" disallow="pedestrian tram rail_urban rail rail_electric rail_fast ship" speed="12.20" length="34.41" width="3.50" shape="-193.81,-544.73 -195.43,-546.68 -196.93,-548.77 -198.27,-551.01 -199.36,-553.42 -200.14,-555.95 -200.40,-557.32 -200.53,-558.68 -200.55,-560.05 -200.44,-561.43 -200.22,-562.78 -199.87,-564.10 -199.42,-565.39 -198.86,-566.65 -197.54,-568.93 -195.97,-571.04 -194.22,-572.95 -192.35,-574.69"/>
    </edge>
    <edge id=":38_2" function="internal">
        <lane id=":38_2_0" index="0" disallow="pedestrian tram rail_urban rail rail_electric rail_fast ship" speed="11.19" length="28.79" width="3.50" shape="-190.05,-572.05 -191.67,-570.54 -193.17,-568.91 -194.49,-567.13 -195.60,-565.21 -196.04,-564.20 -196.41,-563.15 -196.68,-562.08 -196.86,-560.98 -196.95,-559.88 -196.93,-558.77 -196.81,-557.67 -196.61,-556.58 -195.96,-554.46 -195.03,-552.45 -193.90,-550.54 -192.60,-548.74 -191.19,-547.06"/>
    </edge>
    <edge id=":38_3" function="internal">
        <lane id=":38_3_0" index="0" disallow="pedestrian tram rail_urban rail rail_electric rail_fast ship" speed="36.11" length="35.16" width="3.50" shape="-190.05,-572.05 -211.32,-553.96 -216.87,-549.31"/>
    </edge>
    <edge id=":38_4" function="internal">
        <lane id=":38_4_0" index="0" disallow="pedestrian tram rail_urban rail rail_electric rail_fast ship" speed="36.11" length="35.09" width="3.50" shape="-219.11,-551.99 -213.58,-556.64 -192.35,-574.69"/>
    </edge>
    <edge id=":38_5" function="internal">
        <lane id=":38_5_0" index="0" disallow="pedestrian tram rail_urban rail rail_electric rail_fast ship" speed="11.93" length="32.10" width="3.50" shape="-219.11,-552.00 -217.08,-553.52 -214.85,-554.82 -212.46,-555.80 -211.14,-556.16 -209.83,-556.40 -208.49,-556.51 -207.15,-556.50 -205.83,-556.37 -204.52,-556.12 -203.22,-555.76 -200.84,-554.80 -198.61,-553.56 -196.53,-552.11 -193.73,-549.69 -191.19,-547.06"/>
    </edge>
    <edge id=":39_0" function="internal">
        <lane id=":39_0_0" index="0" disallow="pedestrian tram rail_urban rail rail_electric rail_fast ship" speed="36.11" length="36.24" width="3.50" shape="-217.07,-549.15 -221.04,-545.83 -244.98,-526.04"/>
    </edge>
    <edge id=":39_1" function="internal">
        <lane id=":39_1_0" index="0" disallow="pedestrian tram rail_urban rail rail_electric rail_fast ship" speed="11.90" length="32.24" width="3.50" shape="-217.07,-549.15 -218.07,-548.35 -220.15,-546.92 -222.43,-545.71 -224.86,-544.82 -226.18,-544.50 -227.51,-544.31 -228.85,-544.25 -230.19,-544.30 -231.51,-544.47 -232.81,-544.76 -234.10,-545.17 -236.45,-546.21 -238.65,-547.54 -240.66,-549.06 -242.53,-550.74 -245.05,-553.44"/>
    </edge>
    <edge id=":39_2" function="internal">
        <lane id=":39_2_0" index="0" disallow="pedestrian tram rail_urban rail rail_electric rail_fast ship" speed="10.87" length="26.72" width="3.50" shape="-242.40,-555.72 -240.21,-553.37 -238.62,-551.94 -236.93,-550.64 -235.11,-549.52 -233.16,-548.63 -232.15,-548.30 -231.11,-548.05 -230.05,-547.90 -228.98,-547.84 -227.92,-547.88 -226.86,-548.02 -225.81,-548.25 -223.80,-548.96 -221.91,-549.96 -220.15,-551.16 -219.31,-551.83"/>
    </edge>
    <edge id=":39_3" function="internal">
        <lane id=":39_3_0" index="0" disallow="pedestrian tram rail_urban rail rail_electric rail_fast ship" speed="12.10" length="34.41" width="3.50" shape="-242.40,-555.72 -239.97,-552.58 -238.56,-550.33 -237.40,-547.96 -236.54,-545.45 -236.26,-544.16 -236.07,-542.85 -236.01,-541.53 -236.06,-540.21 -236.23,-538.89 -236.52,-537.60 -236.92,-536.34 -237.42,-535.12 -238.70,-532.80 -240.26,-530.66 -242.03,-528.70 -244.98,-526.04"/>
    </edge>
    <edge id=":39_4" function="internal">
        <lane id=":39_4_0" index="0" disallow="pedestrian tram rail_urban rail rail_electric rail_fast ship" speed="11.10" length="28.75" width="3.50" shape="-247.21,-528.74 -244.62,-531.07 -243.11,-532.73 -241.80,-534.53 -240.74,-536.47 -240.35,-537.43 -240.02,-538.45 -239.79,-539.48 -239.66,-540.52 -239.62,-541.57 -239.67,-542.63 -239.82,-543.68 -240.04,-544.70 -240.76,-546.80 -241.74,-548.80 -242.93,-550.70 -245.05,-553.44"/>
    </edge>
    <edge id=":39_5" function="internal">
        <lane id=":39_5_0" index="0" disallow="pedestrian tram rail_urban rail rail_electric rail_fast ship" speed="36.11" length="36.22" width="3.50" shape="-247.21,-528.74 -223.28,-548.52 -219.31,-551.83"/>
    </edge>
    <edge id=":40_0" function="internal">
        <lane id=":40_0_0" index="0" disallow="pedestrian tram rail_urban rail rail_electric rail_fast ship" speed="36.11" length="36.91" width="3.50" shape="-146.55,-487.84 -152.26,-495.09 -169.97,-516.36"/>
    </edge>
    <edge id=":40_1" function="internal">
        <lane id=":40_1_0" index="0" disallow="pedestrian tram rail_urban rail rail_electric rail_fast ship" speed="12.35" length="33.65" width="3.50" shape="-146.55,-487.84 -147.33,-488.91 -148.69,-491.04 -149.85,-493.34 -150.74,-495.79 -151.28,-498.34 -151.40,-499.70 -151.41,-501.04 -151.31,-502.37 -151.10,-503.69 -150.79,-504.98 -150.37,-506.26 -149.31,-508.62 -147.98,-510.82 -146.45,-512.86 -144.76,-514.74 -142.05,-517.29"/>
    </edge>
    <edge id=":40_2" function="internal">
        <lane id=":40_2_0" index="0" disallow="pedestrian tram rail_urban rail rail_electric rail_fast ship" speed="11.36" length="28.28" width="3.50" shape="-139.74,-514.67 -142.14,-512.41 -143.59,-510.79 -144.91,-509.06 -146.04,-507.21 -146.94,-505.23 -147.29,-504.20 -147.55,-503.15 -147.73,-502.08 -147.83,-501.00 -147.83,-499.91 -147.74,-498.83 -147.31,-496.70 -146.58,-494.65 -145.61,-492.71 -144.44,-490.88 -143.80,-490.00"/>
    </edge>
    <edge id=":40_3" function="internal">
        <lane id=":40_3_0" index="0" disallow="pedestrian tram rail_urban rail rail_electric rail_fast ship" speed="12.16" length="34.94" width="3.50" shape="-139.73,-514.67 -142.94,-512.16 -145.20,-510.71 -147.58,-509.48 -150.09,-508.53 -151.39,-508.18 -152.71,-507.94 -154.04,-507.80 -155.39,-507.79 -156.72,-507.89 -158.05,-508.12 -159.34,-508.46 -160.61,-508.91 -161.83,-509.47 -164.14,-510.84 -166.25,-512.49 -168.19,-514.35 -169.97,-516.36"/>
    </edge>
    <edge id=":40_4" function="internal">
        <lane id=":40_4_0" index="0" disallow="pedestrian tram rail_urban rail rail_electric rail_fast ship" speed="11.16" length="29.24" width="3.50" shape="-167.28,-518.60 -165.72,-516.84 -164.07,-515.24 -162.28,-513.86 -160.34,-512.71 -159.37,-512.28 -158.35,-511.92 -157.31,-511.65 -156.25,-511.47 -155.18,-511.39 -154.10,-511.41 -153.02,-511.53 -151.95,-511.73 -150.91,-512.01 -148.79,-512.82 -146.76,-513.87 -144.83,-515.12 -142.05,-517.29"/>
    </edge>
    <edge id=":40_5" function="internal">
        <lane id=":40_5_0" index="0" disallow="pedestrian tram rail_urban rail rail_electric rail_fast ship" speed="36.11" length="37.01" width="3.50" shape="-167.28,-518.60 -149.52,-497.26 -143.80,-490.00"/>
    </edge>

    <edge id="11209" from="38" to="17" priority="3" type="highway.residential" spreadType="center" length="70.01" shape="-201.75,-557.92 -136.79,-615.89">
        <lane id="11209_0" index="0" disallow="pedestrian tram rail_urban rail rail_electric rail_fast ship" speed="36.11" length="70.01" width="3.50" customShape="1" shape="-192.35,-574.69 -184.26,-581.62 -175.34,-589.87 -166.07,-598.48 -160.28,-603.40 -155.45,-607.08 -150.83,-610.19 -146.02,-613.00 -143.77,-614.16 -141.88,-614.87 -136.79,-615.89"/>
    </edge>
    <edge id="11210" from="28" to="38" priority="3" type="highway.residential" spreadType="center" length="70.04" shape="-134.31,-612.78 -199.43,-555.31">
        <lane id="11210_0" index="0" disallow="pedestrian tram rail_urban rail rail_electric rail_fast ship" speed="36.11" length="70.04" width="3.50" customShape="1" shape="-134.31,-612.78 -134.43,-612.76 -140.29,-611.64 -141.92,-611.14 -144.03,-610.09 -148.76,-607.36 -153.29,-604.32 -158.05,-600.71 -163.77,-595.85 -173.01,-587.26 -181.96,-578.99 -190.07,-572.03"/>
    </edge>
    <edge id="11212" from="39" to="38" priority="3" type="highway.residential" spreadType="center" length="0.28" shape="-236.66,-545.77 -201.14,-558.29">
        <lane id="11212_0" index="0" disallow="pedestrian tram rail_urban rail rail_electric rail_fast ship" speed="36.11" length="0.28" width="3.50" customShape="1" shape="-219.31,-551.83 -219.21,-551.91 -219.09,-552.01"/>
    </edge>
    <edge id="11213" from="38" to="39" priority="3" type="highway.residential" spreadType="center" length="0.27" shape="-199.98,-554.99 -235.50,-542.48">
        <lane id="11213_0" index="0" disallow="pedestrian tram rail_urban rail rail_electric rail_fast ship" speed="36.11" length="0.27" width="3.50" customShape="1" shape="-216.87,-549.31 -216.97,-549.23 -217.08,-549.14"/>
    </edge>
    <edge id="11215" from="37" to="39" priority="3" type="highway.residential" spreadType="center" length="27.56" shape="-279.16,-502.02 -237.23,-545.40">
        <lane id="11215_0" index="0" disallow="pedestrian tram rail_urban rail rail_electric rail_fast ship" speed="36.11" length="27.56" width="3.50" customShape="1" shape="-268.59,-511.40 -257.90,-520.07 -247.18,-528.76"/>
    </edge>
    <edge id="11216" from="39" to="37" priority="3" type="highway.residential" spreadType="center" length="27.56" shape="-234.71,-542.97 -276.64,-499.59">
        <lane id="11216_0" index="0" disallow="pedestrian tram rail_urban rail rail_electric rail_fast ship" speed="36.11" length="27.56" width="3.50" customShape="1" shape="-244.98,-526.04 -255.70,-517.35 -266.39,-508.68"/>
    </edge>
    <edge id="11218" from="29" to="37" priority="3" type="highway.residential" spreadType="center" length="70.02" shape="-225.12,-428.26 -279.31,-499.78">
        <lane id="11218_0" index="0" disallow="pedestrian tram rail_urban rail rail_electric rail_fast ship" speed="36.11" length="70.02" width="3.50" customShape="1" shape="-225.12,-428.26 -231.10,-436.62 -238.97,-447.03 -245.90,-455.62 -252.80,-463.59 -260.01,-471.27 -270.32,-481.57"/>
    </edge>
    <edge id="11219" from="37" to="22" priority="3" type="highway.residential" spreadType="center" length="70.00" shape="-276.53,-501.89 -222.62,-430.78">
        <lane id="11219_0" index="0" disallow="pedestrian tram rail_urban rail rail_electric rail_fast ship" speed="36.11" length="70.00" width="3.50" customShape="1" shape="-267.85,-484.04 -257.52,-473.73 -250.26,-465.99 -243.30,-457.97 -236.31,-449.32 -228.41,-438.86 -222.62,-430.78"/>
    </edge>
    <edge id="11385" from="13" to="39" priority="3" type="highway.residential" spreadType="center" length="69.99" shape="-282.10,-613.00 -234.55,-545.12">
        <lane id="11385_0" index="0" disallow="pedestrian tram rail_urban rail rail_electric rail_fast ship" speed="36.11" length="69.99" width="3.50" customShape="1" shape="-282.10,-613.00 -277.44,-604.69 -272.97,-596.22 -269.60,-590.03 -266.65,-585.34 -263.11,-580.44 -257.16,-572.93 -242.40,-555.72"/>
    </edge>
    <edge id="11386" from="39" to="6" priority="3" type="highway.residential" spreadType="center" length="70.00" shape="-237.41,-543.12 -284.81,-610.69">
        <lane id="11386_0" index="0" disallow="pedestrian tram rail_urban rail rail_electric rail_fast ship" speed="36.11" length="70.00" width="3.50" customShape="1" shape="-245.05,-553.44 -259.89,-570.75 -265.91,-578.34 -269.52,-583.33 -272.55,-588.13 -275.98,-594.41 -280.45,-602.91 -284.81,-610.69"/>
    </edge>
    <edge id="11549" from="40" to="34" priority="3" type="highway.residential" spreadType="center" length="70.00" shape="-150.32,-508.69 -95.93,-451.03">
        <lane id="11549_0" index="0" disallow="pedestrian tram rail_urban rail rail_electric rail_fast ship" speed="36.11" length="70.00" width="3.50" customShape="1" shape="-143.80,-490.00 -136.21,-480.33 -128.36,-470.86 -120.25,-461.61 -111.20,-451.89 -109.17,-449.75 -107.95,-448.20 -107.05,-447.04 -106.01,-445.99 -105.15,-445.53 -104.67,-445.44 -104.18,-445.46 -103.25,-445.77 -102.02,-446.59 -100.50,-447.84 -98.12,-449.58 -95.93,-451.03"/>
    </edge>
    <edge id="11550" from="36" to="40" priority="3" type="highway.residential" spreadType="center" length="69.99" shape="-98.22,-445.14 -152.90,-506.32">
        <lane id="11550_0" index="0" disallow="pedestrian tram rail_urban rail rail_electric rail_fast ship" speed="36.11" length="69.99" width="3.50" customShape="1" shape="-98.22,-445.14 -99.11,-444.45 -100.85,-443.19 -102.43,-442.38 -103.71,-442.01 -104.56,-441.94 -105.36,-442.02 -106.75,-442.48 -108.38,-443.56 -109.65,-444.81 -110.99,-446.39 -112.87,-448.57 -122.22,-458.58 -130.62,-468.11 -138.74,-477.89 -146.57,-487.87"/>
    </edge>
    <edge id="11552" from="38" to="40" priority="3" type="highway.residential" spreadType="center" length="37.20" shape="-199.32,-557.88 -150.30,-508.67">
        <lane id="11552_0" index="0" disallow="pedestrian tram rail_urban rail rail_electric rail_fast ship" speed="36.11" length="37.20" width="3.50" customShape="1" shape="-191.19,-547.06 -182.16,-536.66 -167.26,-518.58"/>
    </edge>
    <edge id="11553" from="40" to="38" priority="3" type="highway.residential" spreadType="center" length="37.10" shape="-152.78,-506.20 -201.80,-555.41">
        <lane id="11553_0" index="0" disallow="pedestrian tram rail_urban rail rail_electric rail_fast ship" speed="36.11" length="37.10" width="3.50" customShape="1" shape="-169.97,-516.36 -184.82,-534.38 -193.83,-544.77"/>
    </edge>
    <edge id="11629" from="40" to="32" priority="3" type="highway.residential" spreadType="center" length="30.86" shape="-152.75,-508.76 -118.66,-537.42">
        <lane id="11629_0" index="0" disallow="pedestrian tram rail_urban rail rail_electric rail_fast ship" speed="36.11" length="30.86" width="3.50" customShape="1" shape="-142.05,-517.29 -130.28,-527.67 -118.66,-537.42"/>
    </edge>
    <edge id="11630" from="35" to="40" priority="3" type="highway.residential" spreadType="center" length="30.74" shape="-116.46,-534.70 -150.50,-506.08">
        <lane id="11630_0" index="0" disallow="pedestrian tram rail_urban rail rail_electric rail_fast ship" speed="36.11" length="30.74" width="3.50" customShape="1" shape="-116.46,-534.70 -128.01,-525.00 -139.76,-514.65"/>
    </edge>
    <edge id="11728" from="37" to="24" priority="3" type="highway.residential" spreadType="center" length="70.00" shape="-277.40,-499.13 -358.85,-476.79">
        <lane id="11728_0" index="0" disallow="pedestrian tram rail_urban rail rail_electric rail_fast ship" speed="36.11" length="70.00" width="3.50" customShape="1" shape="-298.20,-508.19 -299.01,-508.76 -300.36,-509.36 -301.80,-509.68 -303.28,-509.65 -304.20,-509.30 -305.45,-508.51 -306.74,-507.78 -308.47,-506.83 -313.21,-504.17 -326.00,-496.70 -357.23,-477.74 -358.85,-476.79"/>
    </edge>
    <edge id="11729" from="30" to="37" priority="3" type="highway.residential" spreadType="center" length="69.83" shape="-357.17,-481.86 -278.31,-502.51">
        <lane id="11729_0" index="0" disallow="pedestrian tram rail_urban rail rail_electric rail_fast ship" speed="36.11" length="69.83" width="3.50" customShape="1" shape="-357.17,-481.86 -326.51,-500.47 -313.43,-508.06 -308.59,-510.78 -306.64,-511.84 -305.08,-512.45 -303.59,-512.87 -302.36,-513.06 -300.45,-512.94 -298.69,-512.45 -297.07,-511.66 -296.20,-511.06"/>
    </edge>

    <junction id="13" type="dead_end" x="-282.10" y="-613.00" incLanes="" intLanes="" shape="-283.62,-612.15 -280.57,-613.86" rightOfWay="edgePriority"/>
    <junction id="17" type="dead_end" x="-136.79" y="-615.89" incLanes="11209_0" intLanes="" shape="-137.14,-617.60 -136.45,-614.17" rightOfWay="edgePriority"/>
    <junction id="22" type="dead_end" x="-222.62" y="-430.78" incLanes="11219_0" intLanes="" shape="-221.19,-431.80 -224.04,-429.76" rightOfWay="edgePriority"/>
    <junction id="24" type="dead_end" x="-358.85" y="-476.79" incLanes="11728_0" intLanes="" shape="-357.96,-475.28 -359.73,-478.30" rightOfWay="edgePriority"/>
    <junction id="28" type="dead_end" x="-134.31" y="-612.78" incLanes="" intLanes="" shape="-134.56,-614.51 -134.07,-611.04" rightOfWay="edgePriority"/>
    <junction id="29" type="dead_end" x="-225.12" y="-428.26" incLanes="" intLanes="" shape="-223.70,-429.28 -226.54,-427.24" rightOfWay="edgePriority"/>
    <junction id="30" type="dead_end" x="-357.17" y="-481.86" incLanes="" intLanes="" shape="-356.27,-480.37 -358.08,-483.36" rightOfWay="edgePriority"/>
    <junction id="32" type="dead_end" x="-118.66" y="-537.42" incLanes="11629_0" intLanes="" shape="-119.78,-538.76 -117.53,-536.08" rightOfWay="edgePriority"/>
    <junction id="34" type="dead_end" x="-95.93" y="-451.03" incLanes="11549_0" intLanes="" shape="-96.90,-452.49 -94.97,-449.57" rightOfWay="edgePriority"/>
    <junction id="35" type="dead_end" x="-116.46" y="-534.70" incLanes="" intLanes="" shape="-117.58,-536.04 -115.33,-533.36" rightOfWay="edgePriority"/>
    <junction id="36" type="dead_end" x="-98.22" y="-445.14" incLanes="" intLanes="" shape="-99.28,-446.53 -97.15,-443.76" rightOfWay="edgePriority"/>
    <junction id="37" type="priority" x="-277.90" y="-500.81" incLanes="11218_0 11216_0 11729_0" intLanes=":37_0_0 :37_1_0 :37_2_0 :37_3_0 :37_4_0 :37_5_0" shape="-271.56,-480.33 -266.61,-485.28 -269.79,-489.11 -271.61,-492.87 -272.07,-496.58 -271.17,-500.22 -268.91,-503.80 -265.29,-507.32 -269.69,-512.75 -273.71,-510.06 -277.83,-508.43 -282.03,-507.85 -286.33,-508.34 -290.71,-509.89 -295.19,-512.49 -299.20,-506.76 -292.65,-501.94 -288.07,-498.04 -284.57,-494.50 -281.25,-490.75 -277.21,-486.22">
        <request index="0" response="001000" foes="001000" cont="0"/>
        <request index="1" response="111000" foes="111000" cont="0"/>
        <request index="2" response="000000" foes="100000" cont="0"/>
        <request index="3" response="000000" foes="100011" cont="0"/>
        <request index="4" response="000000" foes="000010" cont="0"/>
        <request index="5" response="001100" foes="001110" cont="0"/>
    </junction>
    <junction id="38" type="priority" x="-200.56" y="-556.64" incLanes="11553_0 11210_0 11212_0" intLanes=":38_0_0 :38_1_0 :38_2_0 :38_3_0 :38_4_0 :38_5_0" shape="-195.16,-543.62 -189.87,-548.21 -192.84,-552.28 -194.56,-556.23 -195.03,-560.05 -194.25,-563.73 -192.21,-567.28 -188.93,-570.71 -193.49,-576.02 -220.24,-553.34 -215.75,-547.97 -212.47,-550.11 -209.13,-551.10 -205.73,-550.95 -202.26,-549.65 -198.74,-547.21">
        <request index="0" response="001000" foes="001000" cont="0"/>
        <request index="1" response="111000" foes="111000" cont="0"/>
        <request index="2" response="000000" foes="100000" cont="0"/>
        <request index="3" response="000000" foes="100011" cont="0"/>
        <request index="4" response="000000" foes="000010" cont="0"/>
        <request index="5" response="001100" foes="001110" cont="0"/>
    </junction>
    <junction id="39" type="priority" x="-236.00" y="-544.15" incLanes="11213_0 11385_0 11215_0" intLanes=":39_0_0 :39_1_0 :39_2_0 :39_3_0 :39_4_0 :39_5_0" shape="-215.94,-547.80 -220.43,-553.17 -223.83,-550.91 -227.25,-549.80 -230.68,-549.84 -234.13,-551.03 -237.59,-553.37 -241.07,-556.86 -246.38,-552.30 -243.53,-548.30 -241.95,-544.43 -241.64,-540.67 -242.59,-537.03 -244.80,-533.52 -248.28,-530.12 -243.87,-524.68">
        <request index="0" response="000000" foes="001000" cont="0"/>
        <request index="1" response="110000" foes="111000" cont="0"/>
        <request index="2" response="100000" foes="100000" cont="0"/>
        <request index="3" response="100011" foes="100011" cont="0"/>
        <request index="4" response="000000" foes="000010" cont="0"/>
        <request index="5" response="000000" foes="001110" cont="0"/>
    </junction>
    <junction id="40" type="priority" x="-151.57" y="-507.46" incLanes="11550_0 11630_0 11552_0" intLanes=":40_0_0 :40_1_0 :40_2_0 :40_3_0 :40_4_0 :40_5_0" shape="-147.93,-486.76 -142.42,-491.08 -144.75,-494.80 -145.89,-498.52 -145.84,-502.24 -144.61,-505.95 -142.19,-509.65 -138.58,-513.36 -143.20,-518.61 -147.35,-515.54 -151.34,-513.78 -155.20,-513.31 -158.91,-514.14 -162.48,-516.27 -165.91,-519.69 -171.32,-515.24">
        <request index="0" response="000000" foes="001000" cont="0"/>
        <request index="1" response="110000" foes="111000" cont="0"/>
        <request index="2" response="100000" foes="100000" cont="0"/>
        <request index="3" response="100011" foes="100011" cont="0"/>
        <request index="4" response="000000" foes="000010" cont="0"/>
        <request index="5" response="000000" foes="001110" cont="0"/>
    </junction>
    <junction id="6" type="dead_end" x="-284.81" y="-610.69" incLanes="11386_0" intLanes="" shape="-286.34,-609.84 -283.29,-611.55" rightOfWay="edgePriority"/>

    <connection from="11210" to="11552" fromLane="0" toLane="0" contPos="-4.00" shape="-190.05,-572.05 -191.67,-570.54 -193.17,-568.91 -194.49,-567.13 -195.60,-565.21 -196.04,-564.20 -196.41,-563.15 -196.68,-562.08 -196.86,-560.98 -196.95,-559.88 -196.93,-558.77 -196.81,-557.67 -196.61,-556.58 -195.96,-554.46 -195.03,-552.45 -193.90,-550.54 -192.60,-548.74 -191.19,-547.06" via=":38_2_0" dir="r" state="M"/>