<routes>
	<vehicle depart="0.1" departLane="0" departPos="26.454567203762902" departSpeed="0.48539445" id="30" type="passenger">
		<route edges="11553 11209"/>
	</vehicle>
	<vehicle depart="0.1" departLane="0" departPos="6.264671110002206" departSpeed="3.0019549" id="32" type="passenger">
		<route edges=":39_3 11216"/>
	</vehicle>
	<vehicle depart="0.1" departLane="0" departPos="38.47435213420019" departSpeed="0.55040744" id="34" type="passenger">
		<route edges="11385 11216"/>
	</vehicle>
	<vehicle depart="0.1" departLane="0" departPos="21.159930568154497" departSpeed="0.74395428" id="313" type="passenger">
		<route edges=":38_5 11552"/>
	</vehicle>
	<vehicle depart="0.1" departLane="0" departPos="26.715220647582104" departSpeed="0.58101581" id="319" type="passenger">
		<route edges=":39_2 11212 11552"/>
	</vehicle>
	<vehicle depart="0.1" departLane="0" departPos="55.38777147660097" departSpeed="3.7439321" id="322" type="passenger">
		<route edges="11385 11216"/>
	</vehicle>
	<vehicle depart="0.1" departLane="0" departPos="22.93441259781129" departSpeed="1.1780573" id="331" type="passenger">
		<route edges=":39_5 11212"/>
	</vehicle>
	<vehicle depart="0.1" departLane="0" departPos="26.566617613521885" departSpeed="0.0" id="332" type="passenger">
		<route edges="11215 11212"/>
	</vehicle>
	<vehicle depart="0.1" departLane="0" departPos="19.537233121402686" departSpeed="1.0741252" id="358" type="passenger">
		<route edges=":39_0 11216"/>
	</vehicle>
	<vehicle depart="0.1" departLane="0" departPos="15.994174608333958" departSpeed="12.710339" id="365" type="passenger">
		<route edges=":38_3 11213 11216"/>
	</vehicle>
</routes>
