<routes>
	<vehicle depart="0.1" departLane="1" departPos="75.98564258262842" departSpeed="17.4759" id="30" type="passenger">
		<route edges="894 947 904 946 927"/>
	</vehicle>
	<vehicle depart="0.1" departLane="0" departPos="192.34205828611744" departSpeed="0.0" id="31" type="passenger">
		<route edges="877 962 914 1001 853 1037 923"/>
	</vehicle>
	<vehicle depart="0.1" departLane="0" departPos="56.521417398626994" departSpeed="16.0256" id="32" type="passenger">
		<route edges="923 948 840 1033 1018 880 988 901 952 916"/>
	</vehicle>
	<vehicle depart="0.1" departLane="0" departPos="167.20361477937274" departSpeed="4.3855" id="34" type="passenger">
		<route edges="838 1020 1048 919 990 900 979 864 1034 848"/>
	</vehicle>
	<vehicle depart="0.1" departLane="0" departPos="0" departSpeed="5.9134" id="36" type="passenger">
		<route edges="834 1047 1058 1047 1058 894 953 851"/>
	</vehicle>
	<vehicle depart="0.1" departLane="1" departPos="0" departSpeed="16.7985" id="37" type="passenger">
		<route edges="923 923 948 840 1033 1018 880 988 901 952 916"/>
	</vehicle>
	<vehicle depart="0.1" departLane="0" departPos="144.42392721613905" departSpeed="3.749" id="38" type="passenger">
		<route edges="838 1020 1054 899 951 925 976 875"/>
	</vehicle>
	<vehicle depart="0.1" departLane="0" departPos="183.94042059553783" departSpeed="0.9298" id="310" type="passenger">
		<route edges="877 962 914 1001 853 1037 923"/>
	</vehicle>
	<vehicle depart="0.1" departLane="0" departPos="66.11635407636977" departSpeed="0.0" id="311" type="passenger">
		<route edges="911 1003 907 994 897 1007 833"/>
	</vehicle>
	<vehicle depart="0.1" departLane="0" departPos="29.338530106766626" departSpeed="14.974" id="312" type="passenger">
		<route edges="894 953 851"/>
	</vehicle>
	<vehicle depart="0.1" departLane="0" departPos="51.07026614187465" departSpeed="0.0001" id="313" type="passenger">
		<route edges="911 1003 907 994 897 1007 833"/>
	</vehicle>
	<vehicle depart="0.1" departLane="0" departPos="155.860301304206" departSpeed="4.0282" id="314" type="passenger">
		<route edges="838 1020 1054 899 951 925 976 875 980"/>
	</vehicle>
	<vehicle depart="0.1" departLane="0" departPos="58.593489811822955" departSpeed="0.0" id="315" type="passenger">
		<route edges="911 1003 907 994 897 1007 833"/>
	</vehicle>
	<vehicle depart="0.1" departLane="0" departPos="0" departSpeed="16.0566" id="316" type="passenger">
		<route edges="927 1002 1042 854 1010 1010 1062 1016 1048 1048 919 990 900 979 864 1034 848"/>
	</vehicle>
	<vehicle depart="0.1" departLane="0" departPos="43.54593959927035" departSpeed="0.0015" id="318" type="passenger">
		<route edges="911 1003 907 994 897 1007 833"/>
	</vehicle>
	<vehicle depart="0.1" departLane="0" departPos="29.338577162421416" departSpeed="8.3033" id="319" type="passenger">
		<route edges="840 1033 1018 880 964 864 1034 848 1057 912 1013 875"/>
	</vehicle>
	<vehicle depart="0.1" departLane="0" departPos="132.5400209183359" departSpeed="4.1052" id="320" type="passenger">
		<route edges="838 1020 1054 899 951 925 976 875"/>
	</vehicle>
	<vehicle depart="0.1" departLane="0" departPos="4.861183969208238" departSpeed="5.4724" id="321" type="passenger">
		<route edges="997 921 954 876"/>
	</vehicle>
	<vehicle depart="0.1" departLane="0" departPos="0" departSpeed="3.6071" id="323" type="passenger">
		<route edges="993 908"/>
	</vehicle>
	<vehicle depart="0.1" departLane="0" departPos="160.69087928745552" departSpeed="9.2475" id="324" type="passenger">
		<route edges="927 1002 1042 1010 1010 1062 1016 1048 1048 919 978 990 900 979 864 1034 848 1057"/>
	</vehicle>
	<vehicle depart="0.1" departLane="0" departPos="172.80857897014923" departSpeed="2.9037" id="326" type="passenger">
		<route edges="877 962 914 1001 853 1037 923"/>
	</vehicle>
	<vehicle depart="0.1" departLane="0" departPos="0" departSpeed="4.1704" id="328" type="passenger">
		<route edges="1026 834 1058 1047 894 947 904 946 927"/>
	</vehicle>
	<vehicle depart="0.1" departLane="1" departPos="37.291322299601084" departSpeed="0.0" id="329" type="passenger">
		<route edges="869 996 889 1012 923 948 840"/>
	</vehicle>
	<vehicle depart="0.1" departLane="0" departPos="0" departSpeed="6.062" id="330" type="passenger">
		<route edges="899 951 925 976 875 938 921 965 893"/>
	</vehicle>
	<vehicle depart="0.1" departLane="0" departPos="0" departSpeed="5.1136" id="331" type="passenger">
		<route edges="1020 1054 899 951 925 976 875 980 866 1059 860"/>
	</vehicle>
	<vehicle depart="0.1" departLane="0" departPos="0" departSpeed="9.9451" id="333" type="passenger">
		<route edges="880 964 864 1034 848 1057 912 1013 875 938 921"/>
	</vehicle>
	<vehicle depart="0.1" departLane="1" departPos="0" departSpeed="9.5799" id="335" type="passenger">
		<route edges="1048 1048 919 978 990 900 979 864 1034 848 1057"/>
	</vehicle>
	<vehicle depart="0.1" departLane="0" departPos="72.44389230446414" departSpeed="2.255" id="336" type="passenger">
		<route edges="879 929 927 927 1002 857 1048 919 978 844"/>
	</vehicle>
	<vehicle depart="0.1" departLane="0" departPos="89.40750994998783" departSpeed="15.0253" id="337" type="passenger">
		<route edges="923 948 840 1018 880 964 864 1034 848 1057 912 1013 875"/>
	</vehicle>
	<vehicle depart="0.1" departLane="0" departPos="159.20721231407813" departSpeed="4.7275" id="338" type="passenger">
		<route edges="877 962 914 1001 853 1037 923"/>
	</vehicle>
	<vehicle depart="0.1" departLane="0" departPos="63.99058958845367" departSpeed="1.0602" id="340" type="passenger">
		<route edges="879 993 908"/>
	</vehicle>
	<vehicle depart="0.1" departLane="0" departPos="0" departSpeed="10.0887" id="342" type="passenger">
		<route edges="840 1033 859 1016 1035 1048 919 978 844"/>
	</vehicle>
	<vehicle depart="0.1" departLane="0" departPos="0" departSpeed="21.3083" id="343" type="passenger">
		<route edges="978 844"/>
	</vehicle>
	<vehicle depart="0.1" departLane="0" departPos="0" departSpeed="16.4473" id="344" type="passenger">
		<route edges="923 948 840 1033 1018 880 988 901 952 916"/>
	</vehicle>
	<vehicle depart="0.1" departLane="1" departPos="26.643877436905004" departSpeed="0.5081" id="345" type="passenger">
		<route edges="869 996 889 1012 923 948 840"/>
	</vehicle>
	<vehicle depart="0.1" departLane="0" departPos="61.50030220461821" departSpeed="18.8141" id="346" type="passenger">
		<route edges="853 1037 923 948 840 1018 880 988 901"/>
	</vehicle>
	<vehicle depart="0.1" departLane="1" departPos="13.381957186527178" departSpeed="2.9483" id="348" type="passenger">
		<route edges="841 1053 1053 1026 834 1047 894"/>
	</vehicle>
	<vehicle depart="0.1" departLane="0" departPos="0" departSpeed="0.0239" id="349" type="passenger">
		<route edges="841 1026 834 1047 894"/>
	</vehicle>
	<vehicle depart="0.1" departLane="0" departPos="119.9218538789439" departSpeed="4.6135" id="350" type="passenger">
		<route edges="838 1020 857 1048 919 990 900"/>
	</vehicle>
	<vehicle depart="0.1" departLane="0" departPos="56.04828097165932" departSpeed="0.4259" id="351" type="passenger">
		<route edges="879 929 927 927 1002 857 1048 919 978 844"/>
	</vehicle>
	<vehicle depart="0.1" departLane="0" departPos="0" departSpeed="6.1751" id="352" type="passenger">
		<route edges="877 962 914 1001 853 1037 923"/>
	</vehicle>
	<vehicle depart="0.1" departLane="0" departPos="36.01210845145074" departSpeed="0.0095" id="354" type="passenger">
		<route edges="911 1003 907 994 897 1007 833"/>
	</vehicle>
	<vehicle depart="0.1" departLane="0" departPos="10.395948871908987" departSpeed="9.0047" id="355" type="passenger">
		<route edges="1058 894 953 851"/>
	</vehicle>
	<vehicle depart="0.1" departLane="1" departPos="0" departSpeed="20.4729" id="357" type="passenger">
		<route edges="853 1037 1012 923 948 840 1018 880 988 901"/>
	</vehicle>
	<vehicle depart="0.1" departLane="1" departPos="0" departSpeed="1.3114" id="358" type="passenger">
		<route edges="869 996 889 1012 923 948 840"/>
	</vehicle>
	<vehicle depart="0.1" departLane="0" departPos="106.46613513540969" departSpeed="5.1749" id="359" type="passenger">
		<route edges="838 1020 857 1048 919 990 900"/>
	</vehicle>
	<vehicle depart="0.1" departLane="0" departPos="0" departSpeed="7.2794" id="361" type="passenger">
		<route edges="877 962 914 1001 853 1037 923"/>
	</vehicle>
	<vehicle depart="0.1" departLane="1" departPos="30.17680638812815" departSpeed="2.7661" id="363" type="passenger">
		<route edges="911 1003 907 994 897 973 833"/>
	</vehicle>
	<vehicle depart="0.1" departLane="0" departPos="199.20615892875207" departSpeed="21.9487" id="364" type="passenger">
		<route edges="891 987 853 1037 923 948 840 1018 880 988 901"/>
	</vehicle>
	<vehicle depart="0.1" departLane="0" departPos="48.21450954288587" departSpeed="0.3204" id="365" type="passenger">
		<route edges="879 993 908"/>
	</vehicle>
	<vehicle depart="0.1" departLane="0" departPos="0" departSpeed="4.7992" id="367" type="passenger">
		<route edges="869 997 921 954 876"/>
	</vehicle>
	<vehicle depart="0.1" departLane="0" departPos="92.20911676612205" departSpeed="5.9142" id="368" type="passenger">
		<route edges="838 1020 857 1048 919 990 900"/>
	</vehicle>
	<vehicle depart="0.1" departLane="0" departPos="98.47846302886117" departSpeed="12.7577" id="369" type="passenger">
		<route edges="834 1058 1047 894 947 904 946 927"/>
	</vehicle>
	<vehicle depart="0.1" departLane="1" departPos="0" departSpeed="1.9513" id="370" type="passenger">
		<route edges="869 996 889 1012 923 948 840"/>
	</vehicle>
	<vehicle depart="0.1" departLane="0" departPos="0" departSpeed="8.133" id="371" type="passenger">
		<route edges="877 962 914 1001 853 1037 923"/>
	</vehicle>
	<vehicle depart="0.1" departLane="0" departPos="0" departSpeed="0.6691" id="372" type="passenger">
		<route edges="879 993 908"/>
	</vehicle>
	<vehicle depart="0.1" departLane="1" departPos="156.35068100907708" departSpeed="22.6802" id="373" type="passenger">
		<route edges="891 987 1001 853 1037 1037 1012 923 948 840 1018 880 988 901"/>
	</vehicle>
	<vehicle depart="0.1" departLane="0" departPos="21.509539424792113" departSpeed="1.589" id="374" type="passenger">
		<route edges="911 1003 907 994 897 1007 833"/>
	</vehicle>
	<vehicle depart="0.1" departLane="0" departPos="0" departSpeed="6.5447" id="376" type="passenger">
		<route edges="838 1020 857 1048 919 990 900"/>
	</vehicle>
	<vehicle depart="0.1" departLane="0" departPos="13.54051388387548" departSpeed="2.4779" id="377" type="passenger">
		<route edges="1063 1015 869 997 921 954 876"/>
	</vehicle>
	<vehicle depart="0.1" departLane="0" departPos="0" departSpeed="10.2686" id="378" type="passenger">
		<route edges="877 962 914 1001 853 1037 923"/>
	</vehicle>
	<vehicle depart="0.1" departLane="1" departPos="0" departSpeed="0.0777" id="379" type="passenger">
		<route edges="841 841 1026 834 1047 894"/>
	</vehicle>
	<vehicle depart="0.1" departLane="1" departPos="0" departSpeed="2.8443" id="380" type="passenger">
		<route edges="1063 1015 1063 869 996 889 1012 923 948 840"/>
	</vehicle>
	<vehicle depart="0.1" departLane="0" departPos="115.42641551404144" departSpeed="21.1459" id="381" type="passenger">
		<route edges="891 987 853 1037 923 948 840 1018 880 988"/>
	</vehicle>
	<vehicle depart="0.1" departLane="0" departPos="65.6425689866218" departSpeed="13.0526" id="382" type="passenger">
		<route edges="834 1047 1058 1047 1058 894 953 851"/>
	</vehicle>
	<vehicle depart="0.1" departLane="0" departPos="0" departSpeed="1.2666" id="383" type="passenger">
		<route edges="879 993 908"/>
	</vehicle>
	<vehicle depart="0.1" departLane="1" departPos="0" departSpeed="6.9847" id="385" type="passenger">
		<route edges="838 838 1020 857 1048 919 990 900"/>
	</vehicle>
	<vehicle depart="0.1" departLane="1" departPos="0" departSpeed="0.8456" id="386" type="passenger">
		<route edges="911 911 1003 907 994 897 1007 833"/>
	</vehicle>
	<vehicle depart="0.1" departLane="1" departPos="83.09829706053219" departSpeed="17.6987" id="387" type="passenger">
		<route edges="891 987 1001 853 853 1037 1012 923 948 840 1018 880 988"/>
	</vehicle>
	<vehicle depart="0.1" departLane="0" departPos="0" departSpeed="11.019" id="388" type="passenger">
		<route edges="877 962 914 1001 853 1037 923"/>
	</vehicle>
	<vehicle depart="0.1" departLane="1" departPos="0" departSpeed="1.792" id="389" type="passenger">
		<route edges="879 929 927 1002 857 1048 919 978 844"/>
	</vehicle>
	<vehicle depart="0.1" departLane="1" departPos="0" departSpeed="7.4448" id="390" type="passenger">
		<route edges="838 838 1020 857 1048 919 990 900"/>
	</vehicle>
	<vehicle depart="0.1" departLane="0" departPos="0" departSpeed="15.2228" id="391" type="passenger">
		<route edges="1032 915 995 876"/>
	</vehicle>
	<vehicle depart="0.1" departLane="0" departPos="0" departSpeed="9.9565" id="392" type="passenger">
		<route edges="834 1047 1058 1047 1058 894 953 851"/>
	</vehicle>
	<vehicle depart="0.1" departLane="0" departPos="32.044467442029784" departSpeed="3.1005" id="393" type="passenger">
		<route edges="863 863 1063 869 996 889 1012 923"/>
	</vehicle>
	<vehicle depart="0.1" departLane="1" departPos="57.95551326687901" departSpeed="14.7139" id="394" type="passenger">
		<route edges="891 987 853 1037 923 948 840 1033 859 1022 854 1017 899"/>
	</vehicle>
	<vehicle depart="0.1" departLane="0" departPos="0" departSpeed="13.3073" id="395" type="passenger">
		<route edges="927 942 1002 1042 854 1010 1010 1062 1048 919 949 834"/>
	</vehicle>
	<vehicle depart="0.1" departLane="0" departPos="0" departSpeed="11.5261" id="396" type="passenger">
		<route edges="877 962 914 1001 853 1037 923"/>
	</vehicle>
	<vehicle depart="0.1" departLane="1" departPos="0" departSpeed="7.478" id="397" type="passenger">
		<route edges="838 838 1020 857 1048 919 990 900"/>
	</vehicle>
	<vehicle depart="0.1" departLane="0" departPos="37.027543608524525" departSpeed="11.6156" id="398" type="passenger">
		<route edges="845 1032 915 995 876"/>
	</vehicle>
	<vehicle depart="0.1" departLane="1" departPos="0" departSpeed="11.5497" id="399" type="passenger">
		<route edges="891 987 853 1037 923 948 840 1033 859 1022 854 1017 899"/>
	</vehicle>
	<vehicle depart="0.1" departLane="1" departPos="0" departSpeed="2.1238" id="3100" type="passenger">
		<route edges="879 879 929 927 942 899 951 925 976 875"/>
	</vehicle>
	<vehicle depart="0.1" departLane="0" departPos="0" departSpeed="3.117" id="3101" type="passenger">
		<route edges="863 1063 869 997 921 954 876"/>
	</vehicle>
	<vehicle depart="0.1" departLane="0" departPos="0" departSpeed="10.7456" id="3102" type="passenger">
		<route edges="877 962 914 1001 853 1037 923"/>
	</vehicle>
	<vehicle depart="0.1" departLane="0" departPos="0" departSpeed="9.8739" id="3103" type="passenger">
		<route edges="927 942 1002 857 1048 919 978 844"/>
	</vehicle>
	<vehicle depart="0.1" departLane="1" departPos="0" departSpeed="1.0348" id="3104" type="passenger">
		<route edges="863 1063 1063 869 996 889 1012 923"/>
	</vehicle>
	<vehicle depart="0.1" departLane="1" departPos="0" departSpeed="0.6659" id="3105" type="passenger">
		<route edges="911 911 1003 907 994 897 1007 833"/>
	</vehicle>
	<vehicle depart="0.1" departLane="1" departPos="0" departSpeed="6.969" id="3106" type="passenger">
		<route edges="838 1020 857 1062 883"/>
	</vehicle>
	<vehicle depart="0.1" departLane="0" departPos="14.497205214415683" departSpeed="0.0" id="3107" type="passenger">
		<route edges="928 834 1047 894 947 904 946"/>
	</vehicle>
	<vehicle depart="0.1" departLane="1" departPos="0" departSpeed="8.5343" id="3108" type="passenger">
		<route edges="891 891 891 891 987 853 1037 923 948 840 1018 880 988"/>
	</vehicle>
	<vehicle depart="0.1" departLane="0" departPos="0" departSpeed="5.9049" id="3109" type="passenger">
		<route edges="877 962 914 1001 853 1037 923"/>
	</vehicle>
	<vehicle depart="0.1" departLane="0" departPos="0" departSpeed="6.3407" id="3110" type="passenger">
		<route edges="927 942 899 951 925 976 875"/>
	</vehicle>
	<vehicle depart="0.1" departLane="1" departPos="0" departSpeed="4.9361" id="3111" type="passenger">
		<route edges="838 838 1020 857 1048 919 990 900"/>
	</vehicle>
	<vehicle depart="0.1" departLane="0" departPos="0" departSpeed="0.0" id="3112" type="passenger">
		<route edges="863 863 1063 869 996 889 1012 923"/>
	</vehicle>
	<vehicle depart="0.1" departLane="1" departPos="0" departSpeed="5.3852" id="3113" type="passenger">
		<route edges="891 987 853 1037 923 948 840 1033"/>
	</vehicle>
	<vehicle depart="0.1" departLane="1" departPos="0" departSpeed="1.3349" id="3114" type="passenger">
		<route edges="879 929 927 1002 857 1048 919 978 844"/>
	</vehicle>
	<vehicle depart="0.1" departLane="0" departPos="0" departSpeed="1.6727" id="3115" type="passenger">
		<route edges="992 927"/>
	</vehicle>
	<vehicle depart="0.1" departLane="0" departPos="0" departSpeed="2.0072" id="3116" type="passenger">
		<route edges="877 962 914 1001 853 1037 923"/>
	</vehicle>
</routes>
