<routes>
	<vehicle depart="0.1" departLane="0" departPos="4.565191992884046" departSpeed="1.7798925" id="31" type="passenger">
		<route edges=":30_1 8320"/>
	</vehicle>
	<vehicle depart="0.1" departLane="0" departPos="19.789628823442243" departSpeed="0.096529079" id="39" type="passenger">
		<route edges="7687 8351"/>
	</vehicle>
	<vehicle depart="0.1" departLane="0" departPos="13.561389678784762" departSpeed="4.3811455" id="310" type="passenger">
		<route edges=":29_1 8386 7694"/>
	</vehicle>
	<vehicle depart="0.1" departLane="0" departPos="11.551706203752099" departSpeed="0.18355811" id="331" type="passenger">
		<route edges="7570 7629"/>
	</vehicle>
	<vehicle depart="0.1" departLane="0" departPos="22.680747730015366" departSpeed="0.16105177" id="333" type="passenger">
		<route edges="7948 7570"/>
	</vehicle>
	<vehicle depart="0.1" departLane="0" departPos="19.503008559881927" departSpeed="1.3784626" id="344" type="passenger">
		<route edges="7947 7570 8386"/>
	</vehicle>
	<vehicle depart="0.1" departLane="0" departPos="8.843101405410057" departSpeed="1.641749" id="346" type="passenger">
		<route edges="7947 7570"/>
	</vehicle>
	<vehicle depart="0.1" departLane="0" departPos="10.385716299085624" departSpeed="1.1867157" id="338" type="motorcycle">
		<route edges="7948 7570"/>
	</vehicle>
	<vehicle depart="0.1" departLane="0" departPos="7.852179484419084" departSpeed="0.099305845" id="326" type="truck">
		<route edges=":29_0 7629"/>
	</vehicle>
</routes>
