<!-- generated on 2020-12-18 15:44:56.351899 by ipykernel_launcher.py v1_2_0+5214-53edc58fcd
-->
<tlLogics/>
