<!-- generated on Tue Feb  9 22:07:35 2021 by Eclipse SUMO netconvert Version 1.8.0
<configuration xmlns:xsi="http://www.w3.org/2001/XMLSchema-instance" xsi:noNamespaceSchemaLocation="http://sumo.dlr.de/xsd/netconvertConfiguration.xsd">

    <input>
        <node-files value="./converted_scenarios/scenario-factory/HRV_Pula-15_2_I-1-1/HRV_Pula-15_2_I-1-1.nod.xml"/>
        <edge-files value="./converted_scenarios/scenario-factory/HRV_Pula-15_2_I-1-1/HRV_Pula-15_2_I-1-1.edg.xml"/>
        <connection-files value="./converted_scenarios/scenario-factory/HRV_Pula-15_2_I-1-1/HRV_Pula-15_2_I-1-1.con.xml"/>
        <tllogic-files value="./converted_scenarios/scenario-factory/HRV_Pula-15_2_I-1-1/HRV_Pula-15_2_I-1-1.tll.xml"/>
        <type-files value="/home/zen/commonroad-interactive-benchmarks/install/commonroad-map-tool/crmapconverter/sumo_map/templates/DEU.typ.xml"/>
    </input>

    <output>
        <output-file value="./converted_scenarios/scenario-factory/HRV_Pula-15_2_I-1-1/HRV_Pula-15_2_I-1-1.net.xml"/>
    </output>

    <processing>
        <geometry.remove.keep-edges.explicit value="true"/>
        <geometry.avoid-overlap value="true"/>
        <offset.disable-normalization value="true"/>
    </processing>

    <junctions>
        <no-turnarounds value="true"/>
        <junctions.internal-link-detail value="20"/>
    </junctions>

    <report>
        <aggregate-warnings value="5"/>
    </report>

    <random_number>
        <seed value="1234"/>
    </random_number>

</configuration>
--><net xmlns:xsi="http://www.w3.org/2001/XMLSchema-instance" version="1.6" junctionCornerDetail="5" junctionLinkDetail="20" limitTurnSpeed="5.50" xsi:noNamespaceSchemaLocation="http://sumo.dlr.de/xsd/net_file.xsd">

    <location netOffset="0.00,0.00" convBoundary="696.27,-1065.09,973.87,-765.69" origBoundary="696.27,-1065.09,973.87,-765.69" projParameter="!"/>

    <type id="highway.bridleway" priority="1" speed="2.78" allow="pedestrian" oneway="1" width="2.00"/>
    <type id="highway.bus_guideway" priority="1" speed="27.78" allow="bus" oneway="1"/>
    <type id="highway.cycleway" priority="1" speed="8.33" allow="bicycle" oneway="0" width="1.00"/>
    <type id="highway.footway" priority="1" speed="2.78" allow="pedestrian" oneway="1" width="2.00"/>
    <type id="highway.ford" priority="1" speed="2.78" allow="army" oneway="0"/>
    <type id="highway.living_street" priority="2" speed="2.78" disallow="tram rail_urban rail rail_electric rail_fast ship" oneway="0"/>
    <type id="highway.motorway" priority="14" speed="39.44" allow="private emergency authority army vip passenger hov taxi bus coach delivery truck trailer motorcycle evehicle custom1 custom2" oneway="1"/>
    <type id="highway.motorway_link" priority="9" speed="22.22" allow="private emergency authority army vip passenger hov taxi bus coach delivery truck trailer motorcycle evehicle custom1 custom2" oneway="1"/>
    <type id="highway.path" priority="1" speed="2.78" allow="pedestrian bicycle" oneway="0" width="2.00"/>
    <type id="highway.pedestrian" priority="1" speed="2.78" allow="pedestrian" oneway="1" width="2.00"/>
    <type id="highway.primary" priority="12" speed="27.78" disallow="pedestrian tram rail_urban rail rail_electric rail_fast ship" oneway="0"/>
    <type id="highway.primary_link" priority="7" speed="22.22" disallow="pedestrian tram rail_urban rail rail_electric rail_fast ship" oneway="0"/>
    <type id="highway.raceway" priority="15" speed="83.33" allow="vip" oneway="0"/>
    <type id="highway.residential" priority="3" speed="13.89" disallow="pedestrian tram rail_urban rail rail_electric rail_fast ship" oneway="0"/>
    <type id="highway.secondary" priority="11" speed="27.78" disallow="pedestrian tram rail_urban rail rail_electric rail_fast ship" oneway="0"/>
    <type id="highway.secondary_link" priority="6" speed="22.22" disallow="pedestrian tram rail_urban rail rail_electric rail_fast ship" oneway="0"/>
    <type id="highway.service" priority="1" speed="5.56" allow="pedestrian delivery bicycle" oneway="0"/>
    <type id="highway.stairs" priority="1" speed="1.39" allow="pedestrian" oneway="1" width="2.00"/>
    <type id="highway.step" priority="1" speed="1.39" allow="pedestrian" oneway="1" width="2.00"/>
    <type id="highway.steps" priority="1" speed="1.39" allow="pedestrian" oneway="1" width="2.00"/>
    <type id="highway.tertiary" priority="10" speed="22.22" disallow="pedestrian tram rail_urban rail rail_electric rail_fast ship" oneway="0"/>
    <type id="highway.tertiary_link" priority="5" speed="22.22" disallow="pedestrian tram rail_urban rail rail_electric rail_fast ship" oneway="0"/>
    <type id="highway.track" priority="1" speed="5.56" allow="pedestrian motorcycle moped bicycle" oneway="0"/>
    <type id="highway.trunk" priority="13" speed="27.78" disallow="pedestrian bicycle tram rail_urban rail rail_electric rail_fast ship" oneway="0"/>
    <type id="highway.trunk_link" priority="8" speed="22.22" disallow="pedestrian bicycle tram rail_urban rail rail_electric rail_fast ship" oneway="0"/>
    <type id="highway.unclassified" priority="4" speed="13.89" disallow="pedestrian tram rail_urban rail rail_electric rail_fast ship" oneway="0"/>
    <type id="highway.unsurfaced" priority="1" speed="8.33" disallow="tram rail_urban rail rail_electric rail_fast ship" oneway="0"/>
    <type id="railway.highspeed" priority="21" speed="69.44" allow="rail_fast" oneway="1"/>
    <type id="railway.light_rail" priority="19" speed="27.78" allow="rail_urban" oneway="1"/>
    <type id="railway.preserved" priority="16" speed="27.78" allow="rail" oneway="1"/>
    <type id="railway.rail" priority="20" speed="44.44" allow="rail" oneway="1"/>
    <type id="railway.subway" priority="18" speed="27.78" allow="rail_urban" oneway="1"/>
    <type id="railway.tram" priority="17" speed="13.89" allow="tram" oneway="1"/>

    <edge id=":100_0" function="internal">
        <lane id=":100_0_0" index="0" disallow="pedestrian tram rail_urban rail rail_electric rail_fast ship" speed="8.47" length="15.71" width="3.50" shape="787.66,-899.39 786.79,-899.92 785.17,-900.63 782.90,-901.22 780.57,-901.47 777.63,-901.38 774.73,-900.95 772.43,-900.40"/>
    </edge>
    <edge id=":100_1" function="internal">
        <lane id=":100_1_0" index="0" disallow="pedestrian tram rail_urban rail rail_electric rail_fast ship" speed="8.85" length="17.61" width="3.50" shape="793.23,-901.00 793.28,-901.50 793.85,-903.79 794.53,-905.42 795.43,-906.95 796.54,-908.33 797.83,-909.54 799.77,-910.88 801.89,-911.93 804.67,-912.89"/>
    </edge>
    <edge id=":100_2" function="internal">
        <lane id=":100_2_0" index="0" disallow="pedestrian tram rail_urban rail rail_electric rail_fast ship" speed="36.11" length="34.42" width="3.50" shape="805.62,-909.52 789.03,-904.96 772.43,-900.40"/>
    </edge>
    <edge id=":100_3" function="internal">
        <lane id=":100_3_0" index="0" disallow="pedestrian tram rail_urban rail rail_electric rail_fast ship" speed="36.11" length="34.39" width="3.50" shape="771.51,-903.78 788.10,-908.33 804.67,-912.89"/>
    </edge>
    <edge id=":101_0" function="internal">
        <lane id=":101_0_0" index="0" disallow="pedestrian tram rail_urban rail rail_electric rail_fast ship" speed="8.45" length="15.31" width="3.50" shape="820.51,-907.88 820.43,-907.94 818.95,-908.89 817.36,-909.62 815.68,-910.13 813.37,-910.48 811.03,-910.49 808.13,-910.12 805.85,-909.58"/>
    </edge>
    <edge id=":101_1" function="internal">
        <lane id=":101_1_0" index="0" disallow="pedestrian tram rail_urban rail rail_electric rail_fast ship" speed="7.53" length="12.79" width="3.50" shape="824.43,-909.16 824.34,-910.01 824.34,-912.29 824.67,-914.54 825.22,-916.16 826.11,-917.61 826.91,-918.42 827.85,-919.07 829.42,-919.69"/>
    </edge>
    <edge id=":101_2" function="internal">
        <lane id=":101_2_0" index="0" disallow="pedestrian tram rail_urban rail rail_electric rail_fast ship" speed="36.11" length="25.42" width="3.50" shape="830.36,-916.32 818.10,-912.95 805.85,-909.58"/>
    </edge>
    <edge id=":101_3" function="internal">
        <lane id=":101_3_0" index="0" disallow="pedestrian tram rail_urban rail rail_electric rail_fast ship" speed="36.11" length="25.42" width="3.50" shape="804.91,-912.96 817.18,-916.33 829.42,-919.69"/>
    </edge>
    <edge id=":102_0" function="internal">
        <lane id=":102_0_0" index="0" disallow="pedestrian tram rail_urban rail rail_electric rail_fast ship" speed="7.36" length="11.52" width="3.49" shape="866.60,-922.97 865.24,-926.27 864.28,-926.46 863.30,-926.25 862.37,-925.89 860.57,-925.02 858.76,-924.17 857.85,-923.83"/>
    </edge>
    <edge id=":102_1" function="internal">
        <lane id=":102_1_0" index="0" disallow="pedestrian tram rail_urban rail rail_electric rail_fast ship" speed="36.11" length="12.46" width="3.50" shape="866.60,-922.97 862.99,-934.90"/>
    </edge>
    <edge id=":102_2" function="internal">
        <lane id=":102_2_0" index="0" disallow="pedestrian tram rail_urban rail rail_electric rail_fast ship" speed="6.58" length="8.96" width="3.48" shape="874.12,-929.99 873.19,-929.62 870.80,-928.41 869.91,-927.80 869.52,-927.44 869.22,-927.00 869.86,-923.93"/>
    </edge>
    <edge id=":102_3" function="internal">
        <lane id=":102_3_0" index="0" disallow="pedestrian tram rail_urban rail rail_electric rail_fast ship" speed="36.11" length="17.39" width="3.49" shape="874.16,-929.85 864.16,-925.90 858.81,-924.11 857.85,-923.83"/>
    </edge>
    <edge id=":102_4" function="internal">
        <lane id=":102_4_0" index="0" disallow="pedestrian tram rail_urban rail rail_electric rail_fast ship" speed="6.48" length="8.86" width="3.50" shape="873.45,-932.20 872.83,-932.25 870.56,-932.75 868.39,-933.60 866.88,-934.47 865.45,-935.63"/>
    </edge>
    <edge id=":102_5" function="internal">
        <lane id=":102_5_0" index="0" disallow="pedestrian tram rail_urban rail rail_electric rail_fast ship" speed="36.11" length="12.48" width="3.48" shape="866.34,-935.90 869.86,-923.93"/>
    </edge>
    <edge id=":102_6" function="internal">
        <lane id=":102_6_0" index="0" disallow="pedestrian tram rail_urban rail rail_electric rail_fast ship" speed="8.21" length="15.01" width="3.49" shape="865.18,-935.55 865.14,-933.46 864.97,-932.10 864.66,-930.76 864.20,-929.43 863.56,-928.14 862.71,-926.94 861.68,-925.88 860.49,-925.00 859.19,-924.32 857.85,-923.83"/>
    </edge>
    <edge id=":102_7" function="internal">
        <lane id=":102_7_0" index="0" disallow="pedestrian tram rail_urban rail rail_electric rail_fast ship" speed="6.64" length="9.48" width="3.50" shape="856.85,-927.19 857.86,-927.55 858.78,-928.07 859.60,-928.74 860.28,-929.55 860.82,-930.46 861.21,-931.44 861.47,-932.46 861.64,-933.51 861.71,-934.51"/>
    </edge>
    <edge id=":102_8" function="internal">
        <lane id=":102_8_0" index="0" disallow="pedestrian tram rail_urban rail rail_electric rail_fast ship" speed="8.51" length="16.13" width="3.48" shape="856.85,-927.19 858.04,-927.55 860.39,-928.28 862.86,-928.90 864.27,-929.10 865.87,-929.04 867.69,-928.32 869.86,-923.93"/>
    </edge>
    <edge id=":103_0" function="internal">
        <lane id=":103_0_0" index="0" disallow="pedestrian tram rail_urban rail rail_electric rail_fast ship" speed="36.11" length="23.42" width="3.43" shape="763.74,-898.03 743.85,-892.52 741.16,-891.81"/>
    </edge>
    <edge id=":103_1" function="internal">
        <lane id=":103_1_0" index="0" disallow="pedestrian tram rail_urban rail rail_electric rail_fast ship" speed="8.40" length="15.88" width="3.50" shape="747.29,-901.28 747.50,-901.14 749.11,-900.50 750.80,-900.12 753.11,-899.93 756.00,-900.07 759.43,-900.61 762.82,-901.41"/>
    </edge>
    <edge id=":103_2" function="internal">
        <lane id=":103_2_0" index="0" disallow="pedestrian tram rail_urban rail rail_electric rail_fast ship" speed="6.95" length="10.61" width="3.43" shape="742.49,-899.97 743.60,-897.68 744.20,-896.05 744.44,-894.91 744.46,-894.33 744.39,-893.76 744.17,-893.22 743.82,-892.77 743.35,-892.43 741.16,-891.81"/>
    </edge>
    <edge id=":103_3" function="internal">
        <lane id=":103_3_0" index="0" disallow="pedestrian tram rail_urban rail rail_electric rail_fast ship" speed="36.11" length="21.09" width="3.50" shape="742.50,-895.77 742.80,-895.85 762.82,-901.41"/>
    </edge>
    <edge id=":104_0" function="internal">
        <lane id=":104_0_0" index="0" disallow="pedestrian tram rail_urban rail rail_electric rail_fast ship" speed="36.11" length="13.52" width="3.50" shape="802.62,-954.30 814.01,-947.01"/>
    </edge>
    <edge id=":104_1" function="internal">
        <lane id=":104_1_0" index="0" disallow="pedestrian tram rail_urban rail rail_electric rail_fast ship" speed="8.01" length="17.12" width="3.50" shape="805.10,-958.18 804.88,-959.42 804.90,-961.32 805.27,-963.19 805.93,-964.98 807.16,-967.20 808.67,-969.23 810.84,-971.55 812.24,-972.83"/>
    </edge>
    <edge id=":104_2" function="internal">
        <lane id=":104_2_0" index="0" disallow="pedestrian tram rail_urban rail rail_electric rail_fast ship" speed="16.60" length="17.91" width="3.50" shape="814.54,-970.20 813.92,-969.67 813.25,-969.12 812.54,-968.57 811.79,-968.02 811.00,-967.47 810.18,-966.92 809.34,-966.37 808.47,-965.85 807.59,-965.33 806.69,-964.84 805.79,-964.38 804.88,-963.95 803.97,-963.55 803.07,-963.18 802.19,-962.86 801.31,-962.59 800.46,-962.37 799.63,-962.20 798.82,-962.09"/>
    </edge>
    <edge id=":106_0" function="internal">
        <lane id=":106_0_0" index="0" disallow="pedestrian tram rail_urban rail rail_electric rail_fast ship" speed="36.11" length="37.40" width="3.48" shape="876.60,-889.37 871.24,-907.30 865.89,-925.20"/>
    </edge>
    <edge id=":106_1" function="internal">
        <lane id=":106_1_0" index="0" disallow="pedestrian tram rail_urban rail rail_electric rail_fast ship" speed="10.43" length="9.62" width="3.50" shape="869.23,-926.25 869.71,-925.32 871.05,-923.78 873.76,-921.42 876.13,-919.68"/>
    </edge>
    <edge id=":106_2" function="internal">
        <lane id=":106_2_0" index="0" disallow="pedestrian tram rail_urban rail rail_electric rail_fast ship" speed="36.11" length="37.44" width="3.50" shape="869.23,-926.25 874.60,-908.30 879.96,-890.38"/>
    </edge>
    <edge id=":107_0" function="internal">
        <lane id=":107_0_0" index="0" disallow="pedestrian tram rail_urban rail rail_electric rail_fast ship" speed="8.01" length="14.33" width="3.50" shape="894.24,-830.54 893.23,-833.30 892.14,-835.39 890.75,-837.29 889.50,-838.52 888.07,-839.55 886.49,-840.33 885.15,-840.75"/>
    </edge>
    <edge id=":107_1" function="internal">
        <lane id=":107_1_0" index="0" disallow="pedestrian tram rail_urban rail rail_electric rail_fast ship" speed="36.11" length="33.60" width="3.50" shape="894.24,-830.54 889.41,-846.63 884.58,-862.72"/>
    </edge>
    <edge id=":107_2" function="internal">
        <lane id=":107_2_0" index="0" disallow="pedestrian tram rail_urban rail rail_electric rail_fast ship" speed="8.18" length="14.56" width="3.50" shape="899.53,-845.34 898.74,-844.34 897.87,-842.84 897.23,-841.23 896.83,-839.55 896.66,-837.24 896.83,-834.94 897.43,-832.11 897.59,-831.56"/>
    </edge>
    <edge id=":107_3" function="internal">
        <lane id=":107_3_0" index="0" disallow="pedestrian tram rail_urban rail rail_electric rail_fast ship" speed="36.11" length="15.10" width="3.50" shape="898.74,-847.78 891.79,-845.53 884.38,-843.12"/>
    </edge>
    <edge id=":107_4" function="internal">
        <lane id=":107_4_0" index="0" disallow="pedestrian tram rail_urban rail rail_electric rail_fast ship" speed="9.37" length="20.08" width="3.50" shape="898.12,-849.68 897.55,-849.72 895.24,-850.22 893.58,-850.85 892.01,-851.68 890.57,-852.72 888.88,-854.37 887.46,-856.26 886.29,-858.31 885.13,-861.04 884.58,-862.72"/>
    </edge>
    <edge id=":107_5" function="internal">
        <lane id=":107_5_0" index="0" disallow="pedestrian tram rail_urban rail rail_electric rail_fast ship" speed="36.11" length="33.59" width="3.50" shape="887.93,-863.73 892.76,-847.64 897.59,-831.56"/>
    </edge>
    <edge id=":107_6" function="internal">
        <lane id=":107_6_0" index="0" disallow="pedestrian tram rail_urban rail rail_electric rail_fast ship" speed="9.62" length="20.55" width="3.50" shape="887.93,-863.73 888.63,-860.91 889.03,-858.05 889.08,-855.73 888.82,-853.43 888.23,-851.19 887.29,-849.07 886.01,-847.14 884.46,-845.43 883.80,-844.88"/>
    </edge>
    <edge id=":108_0" function="internal">
        <lane id=":108_0_0" index="0" disallow="pedestrian tram rail_urban rail rail_electric rail_fast ship" speed="36.11" length="2.98" width="3.50" shape="935.32,-883.53 937.90,-882.04"/>
    </edge>
    <edge id=":110_0" function="internal">
        <lane id=":110_0_0" index="0" disallow="pedestrian tram rail_urban rail rail_electric rail_fast ship" speed="5.19" length="5.47" width="3.50" shape="740.96,-891.76 742.19,-891.77 742.01,-891.28 741.91,-889.72 742.16,-887.58"/>
    </edge>
    <edge id=":110_1" function="internal">
        <lane id=":110_1_0" index="0" disallow="pedestrian tram rail_urban rail rail_electric rail_fast ship" speed="36.11" length="11.75" width="3.50" shape="731.50,-891.14 733.30,-891.76 737.12,-893.54 740.47,-895.07 742.31,-895.71"/>
    </edge>
    <edge id=":110_2" function="internal">
        <lane id=":110_2_0" index="0" disallow="pedestrian tram rail_urban rail rail_electric rail_fast ship" speed="7.03" length="10.22" width="3.50" shape="731.50,-891.14 732.47,-891.22 734.16,-891.15 735.79,-890.72 737.30,-889.95 738.64,-888.90 740.15,-887.22 740.27,-887.04"/>
    </edge>
    <edge id=":111_0" function="internal">
        <lane id=":111_0_0" index="0" disallow="pedestrian tram rail_urban rail rail_electric rail_fast ship" speed="14.03" length="45.91" width="3.50" shape="818.28,-995.80 822.21,-996.85 826.22,-997.56 829.70,-997.82 832.60,-997.75 835.48,-997.36 838.29,-996.61 840.44,-995.74 842.48,-994.63 844.83,-992.91 846.92,-990.89 848.74,-988.63 850.30,-986.18 851.88,-983.07 853.35,-979.27 853.87,-977.61"/>
    </edge>
    <edge id=":112_0" function="internal">
        <lane id=":112_0_0" index="0" disallow="pedestrian tram rail_urban rail rail_electric rail_fast ship" speed="9.40" length="21.98" width="3.50" shape="806.13,-1011.36 808.59,-1005.79 810.61,-1001.94 812.37,-999.20 813.76,-997.53 814.98,-996.45 815.92,-995.91 816.97,-995.63 817.51,-995.63 819.22,-996.09"/>
    </edge>
    <edge id=":112_1" function="internal">
        <lane id=":112_1_0" index="0" disallow="pedestrian tram rail_urban rail rail_electric rail_fast ship" speed="7.73" length="14.50" width="3.50" shape="803.57,-995.85 803.67,-996.02 804.33,-997.69 804.72,-999.44 804.86,-1001.23 804.71,-1003.61 804.26,-1005.96 803.37,-1008.81 802.96,-1009.89"/>
    </edge>
    <edge id=":112_2" function="internal">
        <lane id=":112_2_0" index="0" disallow="pedestrian tram rail_urban rail rail_electric rail_fast ship" speed="5.79" length="15.05" width="3.50" shape="804.82,-991.72 805.17,-991.83 819.22,-996.09"/>
    </edge>
    <edge id=":113_0" function="internal">
        <lane id=":113_0_0" index="0" disallow="pedestrian tram rail_urban rail rail_electric rail_fast ship" speed="9.51" length="21.84" width="3.50" shape="901.33,-806.10 899.88,-810.43 898.94,-810.81 897.94,-810.95 896.92,-810.96 895.91,-810.90 894.90,-810.78 892.89,-810.45 889.92,-809.79 885.99,-808.73 883.07,-807.84"/>
    </edge>
    <edge id=":113_1" function="internal">
        <lane id=":113_1_0" index="0" disallow="pedestrian tram rail_urban rail rail_electric rail_fast ship" speed="36.11" length="25.24" width="3.50" shape="901.33,-806.10 897.41,-819.97 894.31,-830.34"/>
    </edge>
    <edge id=":113_2" function="internal">
        <lane id=":113_2_0" index="0" disallow="pedestrian tram rail_urban rail rail_electric rail_fast ship" speed="36.11" length="25.62" width="3.50" shape="897.66,-831.32 904.97,-806.77"/>
    </edge>
    <edge id=":113_3" function="internal">
        <lane id=":113_3_0" index="0" disallow="pedestrian tram rail_urban rail rail_electric rail_fast ship" speed="11.78" length="31.63" width="3.50" shape="897.66,-831.36 898.31,-828.77 898.68,-826.16 898.71,-823.53 898.58,-822.22 898.33,-820.93 897.97,-819.66 897.48,-818.44 896.89,-817.27 896.18,-816.16 895.38,-815.11 894.49,-814.14 892.50,-812.42 890.31,-810.96 887.98,-809.73 884.32,-808.25 883.07,-807.84"/>
    </edge>
    <edge id=":113_4" function="internal">
        <lane id=":113_4_0" index="0" disallow="pedestrian tram rail_urban rail rail_electric rail_fast ship" speed="10.73" length="26.08" width="3.50" shape="882.02,-811.18 883.09,-811.53 886.30,-812.82 888.27,-813.84 890.11,-815.05 891.77,-816.48 892.47,-817.23 893.12,-818.05 893.68,-818.92 894.16,-819.83 894.55,-820.79 894.85,-821.78 895.06,-822.80 895.17,-823.81 895.16,-825.99 894.86,-828.15 894.31,-830.34"/>
    </edge>
    <edge id=":113_5" function="internal">
        <lane id=":113_5_0" index="0" disallow="pedestrian tram rail_urban rail rail_electric rail_fast ship" speed="6.72" length="16.87" width="3.50" shape="882.02,-811.18 898.66,-808.43"/>
    </edge>
    <edge id=":115_0" function="internal">
        <lane id=":115_0_0" index="0" disallow="pedestrian tram rail_urban rail rail_electric rail_fast ship" speed="36.11" length="8.16" width="3.50" shape="853.28,-833.05 848.72,-831.57 845.52,-830.53"/>
    </edge>
    <edge id=":115_1" function="internal">
        <lane id=":115_1_0" index="0" disallow="pedestrian tram rail_urban rail rail_electric rail_fast ship" speed="8.12" length="14.51" width="3.50" shape="852.16,-836.52 851.18,-836.94 849.69,-837.86 848.34,-838.98 846.79,-840.73 845.50,-842.68 844.21,-845.31 843.40,-847.50"/>
    </edge>
    <edge id=":116_0" function="internal">
        <lane id=":116_0_0" index="0" disallow="pedestrian tram rail_urban rail rail_electric rail_fast ship" speed="36.11" length="20.08" width="3.50" shape="817.26,-805.79 815.45,-812.16 813.31,-821.54 812.47,-825.28"/>
    </edge>
    <edge id=":116_1" function="internal">
        <lane id=":116_1_0" index="0" disallow="pedestrian tram rail_urban rail rail_electric rail_fast ship" speed="7.84" length="13.46" width="3.50" shape="821.80,-819.75 821.50,-819.36 820.63,-817.82 820.03,-816.16 819.68,-814.43 819.59,-812.08 819.86,-809.74 820.59,-806.87"/>
    </edge>
    <edge id=":116_2" function="internal">
        <lane id=":116_2_0" index="0" disallow="pedestrian tram rail_urban rail rail_electric rail_fast ship" speed="4.50" length="3.76" width="3.50" shape="820.08,-825.06 818.92,-825.37 817.30,-826.07 816.62,-826.49"/>
    </edge>
    <edge id=":117_0" function="internal">
        <lane id=":117_0_0" index="0" disallow="pedestrian tram rail_urban rail rail_electric rail_fast ship" speed="36.11" length="38.07" width="3.50" shape="828.33,-769.11 820.72,-794.73 817.33,-805.56"/>
    </edge>
    <edge id=":117_1" function="internal">
        <lane id=":117_1_0" index="0" disallow="pedestrian tram rail_urban rail rail_electric rail_fast ship" speed="12.85" length="37.50" width="3.50" shape="828.33,-769.11 826.63,-775.68 826.29,-778.21 826.19,-780.77 826.40,-783.32 826.96,-785.82 827.37,-787.03 827.89,-788.20 828.50,-789.33 829.20,-790.40 830.85,-792.35 832.76,-794.05 834.87,-795.50 837.13,-796.72 840.68,-798.18 841.89,-798.58"/>
    </edge>
    <edge id=":117_2" function="internal">
        <lane id=":117_2_0" index="0" disallow="pedestrian tram rail_urban rail rail_electric rail_fast ship" speed="11.73" length="29.86" width="3.50" shape="842.93,-795.24 841.29,-794.67 839.76,-794.02 838.35,-793.30 837.05,-792.50 835.86,-791.63 834.79,-790.68 833.83,-789.66 832.98,-788.56 832.25,-787.38 831.63,-786.14 831.13,-784.81 830.74,-783.41 830.47,-781.94 830.30,-780.39 830.26,-778.76 830.32,-777.06 830.50,-775.28 830.80,-773.43 831.21,-771.51"/>
    </edge>
    <edge id=":117_3" function="internal">
        <lane id=":117_3_0" index="0" disallow="pedestrian tram rail_urban rail rail_electric rail_fast ship" speed="11.74" length="31.46" width="3.50" shape="842.94,-795.24 840.52,-794.55 836.85,-793.81 834.28,-793.56 831.69,-793.58 829.10,-793.92 827.77,-794.26 826.49,-794.71 825.25,-795.28 824.07,-795.97 822.96,-796.77 821.94,-797.67 821.01,-798.66 820.18,-799.72 819.43,-800.86 818.24,-803.16 817.33,-805.56"/>
    </edge>
    <edge id=":117_4" function="internal">
        <lane id=":117_4_0" index="0" disallow="pedestrian tram rail_urban rail rail_electric rail_fast ship" speed="10.68" length="25.92" width="3.50" shape="820.66,-806.64 821.42,-804.63 822.43,-802.72 823.03,-801.82 823.71,-800.98 824.46,-800.20 825.29,-799.50 826.17,-798.89 827.12,-798.36 828.11,-797.93 829.13,-797.60 830.19,-797.35 832.33,-797.09 834.49,-797.10 836.64,-797.33 839.81,-797.99 841.89,-798.58"/>
    </edge>
    <edge id=":117_5" function="internal">
        <lane id=":117_5_0" index="0" disallow="pedestrian tram rail_urban rail rail_electric rail_fast ship" speed="36.11" length="36.70" width="3.50" shape="820.66,-806.63 831.29,-771.50"/>
    </edge>
    <edge id=":119_0" function="internal">
        <lane id=":119_0_0" index="0" disallow="pedestrian tram rail_urban rail rail_electric rail_fast ship" speed="36.11" length="19.37" width="3.50" shape="734.96,-941.80 735.09,-941.10 737.96,-928.29 739.30,-922.92"/>
    </edge>
    <edge id=":119_1" function="internal">
        <lane id=":119_1_0" index="0" disallow="pedestrian tram rail_urban rail rail_electric rail_fast ship" speed="36.11" length="19.59" width="3.50" shape="734.61,-941.75 734.97,-938.97 736.86,-922.29"/>
    </edge>
    <edge id=":119_2" function="internal">
        <lane id=":119_2_0" index="0" disallow="pedestrian tram rail_urban rail rail_electric rail_fast ship" speed="15.74" length="18.80" width="3.50" shape="734.11,-941.67 734.11,-941.33 733.76,-937.22 733.07,-933.15 731.93,-928.64 730.29,-923.75 730.14,-923.38"/>
    </edge>
    <edge id=":120_0" function="internal">
        <lane id=":120_0_0" index="0" disallow="pedestrian tram rail_urban rail rail_electric rail_fast ship" speed="4.31" length="1.48" width="3.50" shape="763.43,-983.20 763.91,-983.15 764.91,-983.14"/>
    </edge>
    <edge id=":121_0" function="internal">
        <lane id=":121_0_0" index="0" disallow="pedestrian tram rail_urban rail rail_electric rail_fast ship" speed="36.11" length="9.87" width="3.50" shape="717.09,-1009.21 725.13,-1003.49"/>
    </edge>
    <edge id=":121_1" function="internal">
        <lane id=":121_1_0" index="0" disallow="pedestrian tram rail_urban rail rail_electric rail_fast ship" speed="23.83" length="20.67" width="3.50" shape="707.35,-1015.67 707.92,-1015.06 708.58,-1014.40 709.32,-1013.71 710.12,-1012.99 710.96,-1012.24 711.85,-1011.46 712.77,-1010.65 713.69,-1009.83 714.62,-1008.99 715.54,-1008.15 716.43,-1007.29 717.29,-1006.43 718.11,-1005.58 718.86,-1004.72 719.54,-1003.88 720.14,-1003.05 720.64,-1002.23 721.03,-1001.43 721.30,-1000.66"/>
    </edge>
    <edge id=":76_0" function="internal">
        <lane id=":76_0_0" index="0" disallow="pedestrian tram rail_urban rail rail_electric rail_fast ship" speed="36.11" length="2.28" width="3.49" shape="729.08,-890.58 731.30,-891.09"/>
    </edge>
    <edge id=":99_0" function="internal">
        <lane id=":99_0_0" index="0" disallow="pedestrian tram rail_urban rail rail_electric rail_fast ship" speed="36.11" length="28.07" width="3.50" shape="857.67,-923.78 844.08,-920.07 830.59,-916.38"/>
    </edge>
    <edge id=":99_1" function="internal">
        <lane id=":99_1_0" index="0" disallow="pedestrian tram rail_urban rail rail_electric rail_fast ship" speed="12.71" length="16.77" width="3.50" shape="857.67,-923.78 856.57,-923.65 855.06,-923.85 852.62,-924.57 848.86,-926.14 843.40,-928.90 842.18,-929.60"/>
    </edge>
    <edge id=":99_2" function="internal">
        <lane id=":99_2_0" index="0" disallow="pedestrian tram rail_urban rail rail_electric rail_fast ship" speed="36.11" length="27.96" width="3.50" shape="829.68,-919.76 843.15,-923.44 856.65,-927.13"/>
    </edge>

    <edge id="18355" from="113" to="107" priority="3" type="highway.residential" spreadType="center" length="0.22" shape="889.77,-817.95 889.57,-846.59">
        <lane id="18355_0" index="0" disallow="pedestrian tram rail_urban rail rail_electric rail_fast ship" speed="36.11" length="0.22" width="3.50" customShape="1" shape="894.31,-830.34 894.24,-830.55"/>
    </edge>
    <edge id="18356" from="107" to="113" priority="3" type="highway.residential" spreadType="center" length="0.25" shape="893.07,-846.61 893.26,-817.97">
        <lane id="18356_0" index="0" disallow="pedestrian tram rail_urban rail rail_electric rail_fast ship" speed="36.11" length="0.25" width="3.50" customShape="1" shape="897.59,-831.56 897.63,-831.44 897.66,-831.32"/>
    </edge>
    <edge id="18358" from="92" to="113" priority="3" type="highway.residential" spreadType="center" length="1.59">
        <lane id="18358_0" index="0" disallow="pedestrian tram rail_urban rail rail_electric rail_fast ship" speed="36.11" length="1.59" width="2.73" customShape="1" shape="901.69,-804.55 901.33,-806.10"/>
    </edge>
    <edge id="18430" from="115" to="101" priority="3" type="highway.residential" spreadType="center" length="78.04">
        <lane id="18430_0" index="0" disallow="pedestrian tram rail_urban rail rail_electric rail_fast ship" speed="36.11" length="78.04" width="3.50" customShape="1" shape="847.61,-834.63 835.19,-872.64 823.38,-908.81"/>
    </edge>
    <edge id="18438" from="117" to="113" priority="3" type="highway.residential" spreadType="center" length="42.06" shape="829.42,-797.22 890.91,-819.71">
        <lane id="18438_0" index="0" disallow="pedestrian tram rail_urban rail rail_electric rail_fast ship" speed="36.11" length="42.06" width="3.50" customShape="1" shape="841.89,-798.58 861.96,-804.88 882.02,-811.18"/>
    </edge>