<routes>
	<vehicle depart="0.1" departLane="0" departPos="20.763356401878802" departSpeed="0.48041988" id="38" type="passenger">
		<route edges=":102_4 18626"/>
	</vehicle>
	<vehicle depart="0.1" departLane="0" departPos="11.777914964671945" departSpeed="0.1447016" id="39" type="passenger">
		<route edges=":102_4 18626"/>
	</vehicle>
	<vehicle depart="0.1" departLane="0" departPos="5.243487455226262" departSpeed="0.54902253" id="312" type="passenger">
		<route edges=":106_1 18605"/>
	</vehicle>
	<vehicle depart="0.1" departLane="0" departPos="58.29622474442156" departSpeed="0.74576414" id="328" type="passenger">
		<route edges="18757 18626"/>
	</vehicle>
	<vehicle depart="0.1" departLane="0" departPos="12.223833993711013" departSpeed="1.5872397" id="332" type="passenger">
		<route edges=":99_0 18854"/>
	</vehicle>
	<vehicle depart="0.1" departLane="0" departPos="50.90889802981653" departSpeed="0.12270413" id="334" type="passenger">
		<route edges="18757 18857"/>
	</vehicle>
	<vehicle depart="0.1" departLane="0" departPos="38.595856698492014" departSpeed="2.1721807" id="340" type="passenger">
		<route edges="18757 18857"/>
	</vehicle>
	<vehicle depart="0.1" departLane="0" departPos="31.093772878123335" departSpeed="0.50526206" id="347" type="passenger">
		<route edges="18757 18857"/>
	</vehicle>
	<vehicle depart="0.1" departLane="0" departPos="21.870185629907237" departSpeed="0.64023745" id="357" type="passenger">
		<route edges="18757 18857"/>
	</vehicle>
	<vehicle depart="0.1" departLane="0" departPos="30.72357693630494" departSpeed="0.68016228" id="33" type="truck">
		<route edges=":102_3 18857 18854 18851 18848 18845 18529"/>
	</vehicle>
</routes>
