<routes>
	<vehicle depart="0.1" departLane="0" departPos="37.1681677229513" departSpeed="0.0" id="311" type="bicycle">
		<route edges="784 204"/>
	</vehicle>
	<vehicle depart="0.1" departLane="0" departPos="69.14365406733751" departSpeed="6.8558197" id="312" type="bicycle">
		<route edges="203 200 135"/>
	</vehicle>
	<vehicle depart="0.1" departLane="0" departPos="12.351085163226063" departSpeed="0.0" id="334" type="bus">
		<route edges="133 135"/>
	</vehicle>
	<vehicle depart="0.1" departLane="0" departPos="8.966808229040439" departSpeed="0.0" id="31" type="passenger">
		<route edges="357 203"/>
	</vehicle>
	<vehicle depart="0.1" departLane="0" departPos="90.48572872063819" departSpeed="0.0" id="34" type="passenger">
		<route edges="204 360"/>
	</vehicle>
	<vehicle depart="0.1" departLane="0" departPos="39.13595221189322" departSpeed="1.1380815" id="36" type="passenger">
		<route edges="200 135"/>
	</vehicle>
	<vehicle depart="0.1" departLane="0" departPos="50.34680635775941" departSpeed="0.0" id="37" type="passenger">
		<route edges="784 204"/>
	</vehicle>
	<vehicle depart="0.1" departLane="0" departPos="43.08056341344215" departSpeed="0.0" id="38" type="passenger">
		<route edges="784 204"/>
	</vehicle>
	<vehicle depart="0.1" departLane="0" departPos="35.82436792474196" departSpeed="0.0" id="314" type="passenger">
		<route edges="784 204"/>
	</vehicle>
	<vehicle depart="0.1" departLane="0" departPos="17.02393816589075" departSpeed="10.719541" id="316" type="passenger">
		<route edges="785"/>
	</vehicle>
	<vehicle depart="0.1" departLane="0" departPos="29.147907058115326" departSpeed="5.3287373e-05" id="317" type="passenger">
		<route edges="784 204"/>
	</vehicle>
	<vehicle depart="0.1" departLane="0" departPos="15.186447771924724" departSpeed="11.19464" id="320" type="passenger">
		<route edges=":25_1 200 135"/>
	</vehicle>
	<vehicle depart="0.1" departLane="0" departPos="57.188533163443424" departSpeed="15.122589" id="321" type="passenger">
		<route edges="203 785"/>
	</vehicle>
	<vehicle depart="0.1" departLane="0" departPos="17.257865630009782" departSpeed="0.0020796957" id="323" type="passenger">
		<route edges="784 204"/>
	</vehicle>
	<vehicle depart="0.1" departLane="0" departPos="38.18061946063712" departSpeed="0.0" id="324" type="passenger">
		<route edges="201 785"/>
	</vehicle>
	<vehicle depart="0.1" departLane="0" departPos="30.6556237826163" departSpeed="0.026437845" id="327" type="passenger">
		<route edges="201 785"/>
	</vehicle>
	<vehicle depart="0.1" departLane="0" departPos="11.640527393322701" departSpeed="9.1697159" id="328" type="passenger">
		<route edges="203 200"/>
	</vehicle>
	<vehicle depart="0.1" departLane="0" departPos="5.146090159058904" departSpeed="6.6925646" id="330" type="passenger">
		<route edges=":26_4 203 200"/>
	</vehicle>
	<vehicle depart="0.1" departLane="0" departPos="5.386171943325505" departSpeed="0.022238747" id="331" type="passenger">
		<route edges="784 204"/>
	</vehicle>
	<vehicle depart="0.1" departLane="0" departPos="13.101785023193763" departSpeed="7.733797" id="332" type="passenger">
		<route edges=":28_2 201 785"/>
	</vehicle>
	<vehicle depart="0.1" departLane="0" departPos="12.75518647234168" departSpeed="14.449092" id="335" type="passenger">
		<route edges="359 1539"/>
	</vehicle>
	<vehicle depart="0.1" departLane="0" departPos="22.147567072995628" departSpeed="0.00041609569" id="319" type="motorcycle">
		<route edges="784 204"/>
	</vehicle>
	<vehicle depart="0.1" departLane="0" departPos="10.079644707117845" departSpeed="0.0081499958" id="325" type="motorcycle">
		<route edges="784 204"/>
	</vehicle>
	<vehicle depart="0.1" departLane="0" departPos="42.508118453470075" departSpeed="12.084265" id="333" type="motorcycle">
		<route edges="359 1539"/>
	</vehicle>
	<vehicle depart="0.1" departLane="0" departPos="31.607566058392404" departSpeed="0.38929192" id="30" type="truck">
		<route edges="200 135"/>
	</vehicle>
	<vehicle depart="0.1" departLane="0" departPos="83.17020923654408" departSpeed="0.014578895" id="310" type="truck">
		<route edges="204 360"/>
	</vehicle>
	<vehicle depart="0.1" departLane="0" departPos="12.874107072300356" departSpeed="7.0509454" id="329" type="truck">
		<route edges="135"/>
	</vehicle>
</routes>
