<routes>
	<vehicle depart="0.1" departLane="0" departPos="19.47441621658931" departSpeed="10.648495" id="331" type="passenger">
		<route edges="51757 51754 51710"/>
	</vehicle>
	<vehicle depart="0.1" departLane="0" departPos="12.675283384688395" departSpeed="0.17717688" id="345" type="passenger">
		<route edges=":142_3 51758"/>
	</vehicle>
	<vehicle depart="0.1" departLane="0" departPos="12.021174163941323" departSpeed="13.765578" id="355" type="passenger">
		<route edges=":139_5 51760 51757"/>
	</vehicle>
	<vehicle depart="0.1" departLane="0" departPos="21.631011164390262" departSpeed="9.4746197" id="368" type="passenger">
		<route edges=":144_1 51763 51760 51757"/>
	</vehicle>
	<vehicle depart="0.1" departLane="0" departPos="14.047974821540329" departSpeed="7.0092376" id="326" type="motorcycle">
		<route edges=":142_4 52071"/>
	</vehicle>
	<vehicle depart="0.1" departLane="0" departPos="14.57299580512714" departSpeed="9.9470463" id="333" type="motorcycle">
		<route edges=":138_2 51757 51754"/>
	</vehicle>
</routes>
