<!-- generated on Tue Feb  9 22:08:25 2021 by Eclipse SUMO netconvert Version 1.8.0
<configuration xmlns:xsi="http://www.w3.org/2001/XMLSchema-instance" xsi:noNamespaceSchemaLocation="http://sumo.dlr.de/xsd/netconvertConfiguration.xsd">

    <input>
        <node-files value="./converted_scenarios/scenario-factory/DEU_Backnang-4_1_I-1-1/DEU_Backnang-4_1_I-1-1.nod.xml"/>
        <edge-files value="./converted_scenarios/scenario-factory/DEU_Backnang-4_1_I-1-1/DEU_Backnang-4_1_I-1-1.edg.xml"/>
        <connection-files value="./converted_scenarios/scenario-factory/DEU_Backnang-4_1_I-1-1/DEU_Backnang-4_1_I-1-1.con.xml"/>
        <tllogic-files value="./converted_scenarios/scenario-factory/DEU_Backnang-4_1_I-1-1/DEU_Backnang-4_1_I-1-1.tll.xml"/>
        <type-files value="/home/zen/commonroad-interactive-benchmarks/install/commonroad-map-tool/crmapconverter/sumo_map/templates/DEU.typ.xml"/>
    </input>

    <output>
        <output-file value="./converted_scenarios/scenario-factory/DEU_Backnang-4_1_I-1-1/DEU_Backnang-4_1_I-1-1.net.xml"/>
    </output>

    <processing>
        <geometry.remove.keep-edges.explicit value="true"/>
        <geometry.avoid-overlap value="true"/>
        <offset.disable-normalization value="true"/>
    </processing>

    <junctions>
        <no-turnarounds value="true"/>
        <junctions.internal-link-detail value="20"/>
    </junctions>

    <report>
        <aggregate-warnings value="5"/>
    </report>

    <random_number>
        <seed value="1234"/>
    </random_number>

</configuration>
--><net xmlns:xsi="http://www.w3.org/2001/XMLSchema-instance" version="1.6" junctionCornerDetail="5" junctionLinkDetail="20" limitTurnSpeed="5.50" xsi:noNamespaceSchemaLocation="http://sumo.dlr.de/xsd/net_file.xsd">

    <location netOffset="0.00,0.00" convBoundary="-361.29,-217.80,-100.88,123.15" origBoundary="-361.29,-218.91,-100.88,123.15" projParameter="!"/>

    <type id="highway.bridleway" priority="1" speed="2.78" allow="pedestrian" oneway="1" width="2.00"/>
    <type id="highway.bus_guideway" priority="1" speed="27.78" allow="bus" oneway="1"/>
    <type id="highway.cycleway" priority="1" speed="8.33" allow="bicycle" oneway="0" width="1.00"/>
    <type id="highway.footway" priority="1" speed="2.78" allow="pedestrian" oneway="1" width="2.00"/>
    <type id="highway.ford" priority="1" speed="2.78" allow="army" oneway="0"/>
    <type id="highway.living_street" priority="2" speed="2.78" disallow="tram rail_urban rail rail_electric rail_fast ship" oneway="0"/>
    <type id="highway.motorway" priority="14" speed="39.44" allow="private emergency authority army vip passenger hov taxi bus coach delivery truck trailer motorcycle evehicle custom1 custom2" oneway="1"/>
    <type id="highway.motorway_link" priority="9" speed="22.22" allow="private emergency authority army vip passenger hov taxi bus coach delivery truck trailer motorcycle evehicle custom1 custom2" oneway="1"/>
    <type id="highway.path" priority="1" speed="2.78" allow="pedestrian bicycle" oneway="0" width="2.00"/>
    <type id="highway.pedestrian" priority="1" speed="2.78" allow="pedestrian" oneway="1" width="2.00"/>
    <type id="highway.primary" priority="12" speed="27.78" disallow="pedestrian tram rail_urban rail rail_electric rail_fast ship" oneway="0"/>
    <type id="highway.primary_link" priority="7" speed="22.22" disallow="pedestrian tram rail_urban rail rail_electric rail_fast ship" oneway="0"/>
    <type id="highway.raceway" priority="15" speed="83.33" allow="vip" oneway="0"/>
    <type id="highway.residential" priority="3" speed="13.89" disallow="pedestrian tram rail_urban rail rail_electric rail_fast ship" oneway="0"/>
    <type id="highway.secondary" priority="11" speed="27.78" disallow="pedestrian tram rail_urban rail rail_electric rail_fast ship" oneway="0"/>
    <type id="highway.secondary_link" priority="6" speed="22.22" disallow="pedestrian tram rail_urban rail rail_electric rail_fast ship" oneway="0"/>
    <type id="highway.service" priority="1" speed="5.56" allow="pedestrian delivery bicycle" oneway="0"/>
    <type id="highway.stairs" priority="1" speed="1.39" allow="pedestrian" oneway="1" width="2.00"/>
    <type id="highway.step" priority="1" speed="1.39" allow="pedestrian" oneway="1" width="2.00"/>
    <type id="highway.steps" priority="1" speed="1.39" allow="pedestrian" oneway="1" width="2.00"/>
    <type id="highway.tertiary" priority="10" speed="22.22" disallow="pedestrian tram rail_urban rail rail_electric rail_fast ship" oneway="0"/>
    <type id="highway.tertiary_link" priority="5" speed="22.22" disallow="pedestrian tram rail_urban rail rail_electric rail_fast ship" oneway="0"/>
    <type id="highway.track" priority="1" speed="5.56" allow="pedestrian motorcycle moped bicycle" oneway="0"/>
    <type id="highway.trunk" priority="13" speed="27.78" disallow="pedestrian bicycle tram rail_urban rail rail_electric rail_fast ship" oneway="0"/>
    <type id="highway.trunk_link" priority="8" speed="22.22" disallow="pedestrian bicycle tram rail_urban rail rail_electric rail_fast ship" oneway="0"/>
    <type id="highway.unclassified" priority="4" speed="13.89" disallow="pedestrian tram rail_urban rail rail_electric rail_fast ship" oneway="0"/>
    <type id="highway.unsurfaced" priority="1" speed="8.33" disallow="tram rail_urban rail rail_electric rail_fast ship" oneway="0"/>
    <type id="railway.highspeed" priority="21" speed="69.44" allow="rail_fast" oneway="1"/>
    <type id="railway.light_rail" priority="19" speed="27.78" allow="rail_urban" oneway="1"/>
    <type id="railway.preserved" priority="16" speed="27.78" allow="rail" oneway="1"/>
    <type id="railway.rail" priority="20" speed="44.44" allow="rail" oneway="1"/>
    <type id="railway.subway" priority="18" speed="27.78" allow="rail_urban" oneway="1"/>
    <type id="railway.tram" priority="17" speed="13.89" allow="tram" oneway="1"/>

    <edge id=":26_0" function="internal">
        <lane id=":26_0_0" index="0" disallow="pedestrian tram rail_urban rail rail_electric rail_fast ship" speed="36.11" length="3.00" width="3.50" shape="-328.32,-131.03 -331.05,-132.28"/>
    </edge>
    <edge id=":37_0" function="internal">
        <lane id=":37_0_0" index="0" disallow="pedestrian tram rail_urban rail rail_electric rail_fast ship" speed="36.11" length="3.00" width="3.50" shape="-329.60,-135.46 -326.87,-134.22"/>
    </edge>
    <edge id=":53_0" function="internal">
        <lane id=":53_0_0" index="0" disallow="pedestrian tram rail_urban rail rail_electric rail_fast ship" speed="10.82" length="29.54" width="3.50" shape="-145.29,-18.74 -147.96,-20.86 -149.87,-22.09 -151.90,-23.12 -154.04,-23.88 -155.14,-24.13 -156.27,-24.29 -157.40,-24.33 -158.54,-24.26 -159.66,-24.07 -160.75,-23.77 -161.81,-23.35 -162.83,-22.84 -163.79,-22.25 -165.59,-20.86 -167.20,-19.25 -168.65,-17.50 -169.96,-15.65"/>
    </edge>
    <edge id=":53_1" function="internal">
        <lane id=":53_1_0" index="0" disallow="pedestrian tram rail_urban rail rail_electric rail_fast ship" speed="36.11" length="41.13" width="3.50" shape="-145.29,-18.74 -156.24,-28.07 -165.05,-35.15 -172.46,-40.70 -177.54,-44.23"/>
    </edge>
    <edge id=":53_2" function="internal">
        <lane id=":53_2_0" index="0" disallow="pedestrian tram rail_urban rail rail_electric rail_fast ship" speed="11.98" length="23.25" width="3.50" shape="-154.11,-41.15 -153.76,-38.53 -153.10,-35.90 -152.16,-33.35 -150.69,-30.44 -148.90,-27.72 -146.49,-24.78 -143.80,-22.10 -143.01,-21.39"/>
    </edge>
    <edge id=":53_3" function="internal">
        <lane id=":53_3_0" index="0" disallow="pedestrian tram rail_urban rail rail_electric rail_fast ship" speed="36.11" length="29.58" width="3.50" shape="-156.68,-42.03 -159.54,-35.21 -162.98,-27.91 -166.29,-21.68 -169.41,-16.49 -169.96,-15.65"/>
    </edge>
    <edge id=":53_4" function="internal">
        <lane id=":53_4_0" index="0" disallow="pedestrian tram rail_urban rail rail_electric rail_fast ship" speed="8.77" length="20.33" width="3.50" shape="-158.84,-42.78 -159.61,-42.13 -161.20,-41.14 -162.93,-40.45 -164.76,-40.06 -166.62,-39.99 -168.48,-40.20 -170.89,-40.83 -173.20,-41.76 -175.94,-43.22 -177.54,-44.23"/>
    </edge>
    <edge id=":53_5" function="internal">
        <lane id=":53_5_0" index="0" disallow="pedestrian tram rail_urban rail rail_electric rail_fast ship" speed="36.11" length="41.61" width="3.50" shape="-175.64,-47.17 -170.43,-43.56 -162.94,-37.94 -154.04,-30.79 -143.01,-21.39"/>
    </edge>
    <edge id=":53_6" function="internal">
        <lane id=":53_6_0" index="0" disallow="pedestrian tram rail_urban rail rail_electric rail_fast ship" speed="12.57" length="36.70" width="3.50" shape="-175.64,-47.17 -172.43,-44.79 -170.50,-43.02 -168.75,-41.08 -167.25,-38.94 -166.05,-36.61 -165.59,-35.39 -165.23,-34.13 -164.97,-32.85 -164.82,-31.55 -164.82,-28.93 -165.19,-26.34 -165.87,-23.82 -166.81,-21.37 -168.58,-17.87 -169.96,-15.65"/>
    </edge>
    <edge id=":53_7" function="internal">
        <lane id=":53_7_0" index="0" disallow="pedestrian tram rail_urban rail rail_electric rail_fast ship" speed="11.60" length="31.09" width="3.50" shape="-172.88,-17.57 -171.68,-19.52 -170.11,-22.60 -169.30,-24.69 -168.72,-26.83 -168.40,-28.99 -168.40,-31.18 -168.52,-32.21 -168.72,-33.25 -169.01,-34.28 -169.37,-35.25 -170.37,-37.21 -171.62,-39.00 -173.11,-40.65 -174.76,-42.16 -177.54,-44.23"/>
    </edge>
    <edge id=":53_8" function="internal">
        <lane id=":53_8_0" index="0" disallow="pedestrian tram rail_urban rail rail_electric rail_fast ship" speed="11.84" length="35.62" width="3.50" shape="-172.88,-17.57 -171.36,-19.72 -169.66,-21.77 -167.74,-23.68 -165.60,-25.35 -164.39,-26.10 -163.12,-26.74 -161.80,-27.25 -160.42,-27.64 -159.00,-27.88 -157.56,-27.98 -156.13,-27.92 -154.73,-27.73 -153.33,-27.41 -150.76,-26.50 -148.34,-25.27 -146.08,-23.82 -143.01,-21.39"/>
    </edge>
    <edge id=":54_0" function="internal">
        <lane id=":54_0_0" index="0" disallow="pedestrian tram rail_urban rail rail_electric rail_fast ship" speed="10.70" length="29.50" width="3.50" shape="-190.00,-215.39 -192.29,-215.41 -194.63,-215.24 -196.90,-214.85 -199.08,-214.17 -200.06,-213.73 -201.01,-213.20 -201.90,-212.59 -202.71,-211.89 -203.45,-211.12 -204.10,-210.27 -204.66,-209.34 -205.15,-208.36 -205.54,-207.36 -206.13,-205.14 -206.43,-202.85 -206.52,-200.51 -206.31,-196.89"/>
    </edge>
    <edge id=":54_1" function="internal">
        <lane id=":54_1_0" index="0" disallow="pedestrian tram rail_urban rail rail_electric rail_fast ship" speed="12.17" length="35.17" width="3.50" shape="-229.86,-216.20 -225.89,-216.51 -223.30,-216.44 -220.72,-216.11 -218.21,-215.45 -217.00,-214.99 -215.82,-214.43 -214.70,-213.77 -213.64,-213.02 -212.65,-212.18 -211.74,-211.26 -210.91,-210.26 -209.48,-208.09 -208.36,-205.75 -207.51,-203.30 -206.89,-200.77 -206.31,-196.89"/>
    </edge>
    <edge id=":54_2" function="internal">
        <lane id=":54_2_0" index="0" disallow="pedestrian tram rail_urban rail rail_electric rail_fast ship" speed="11.17" length="29.44" width="3.50" shape="-209.79,-196.53 -210.30,-199.94 -210.83,-202.10 -211.55,-204.19 -212.47,-206.14 -213.66,-207.95 -214.31,-208.73 -215.04,-209.48 -215.83,-210.15 -216.68,-210.75 -217.58,-211.28 -218.52,-211.73 -219.48,-212.10 -221.58,-212.66 -223.74,-212.94 -225.95,-213.00 -229.36,-212.74"/>
    </edge>
    <edge id=":54_3" function="internal">
        <lane id=":54_3_0" index="0" disallow="pedestrian tram rail_urban rail rail_electric rail_fast ship" speed="11.74" length="35.74" width="3.50" shape="-209.79,-196.53 -210.03,-200.68 -209.92,-203.42 -209.55,-206.14 -208.84,-208.80 -208.34,-210.08 -207.73,-211.31 -207.01,-212.47 -206.17,-213.56 -205.22,-214.55 -204.17,-215.44 -203.04,-216.22 -201.84,-216.88 -200.58,-217.44 -197.96,-218.25 -195.25,-218.71 -192.51,-218.91 -189.76,-218.89"/>
    </edge>
    <edge id=":55_0" function="internal">
        <lane id=":55_0_0" index="0" disallow="pedestrian tram rail_urban rail rail_electric rail_fast ship" speed="36.11" length="39.18" width="3.50" shape="-270.75,-101.08 -282.35,-107.85 -294.99,-114.79 -305.05,-120.00"/>
    </edge>
    <edge id=":55_1" function="internal">
        <lane id=":55_1_0" index="0" disallow="pedestrian tram rail_urban rail rail_electric rail_fast ship" speed="14.67" length="36.78" width="3.50" shape="-270.75,-101.07 -272.76,-102.40 -274.61,-103.88 -276.30,-105.53 -277.81,-107.36 -279.12,-109.33 -280.21,-111.44 -281.08,-113.64 -281.72,-115.92 -282.32,-119.42 -282.53,-122.97 -282.40,-126.52 -281.99,-130.05 -281.36,-133.57"/>
    </edge>
    <edge id=":55_2" function="internal">
        <lane id=":55_2_0" index="0" disallow="pedestrian tram rail_urban rail rail_electric rail_fast ship" speed="13.81" length="32.48" width="3.50" shape="-277.93,-132.91 -278.52,-129.64 -278.89,-126.44 -279.02,-123.25 -278.86,-120.08 -278.35,-116.97 -277.81,-115.00 -277.08,-113.08 -276.16,-111.25 -275.05,-109.54 -273.76,-107.96 -272.31,-106.53 -270.70,-105.23 -268.96,-104.08"/>
    </edge>
    <edge id=":55_3" function="internal">
        <lane id=":55_3_0" index="0" disallow="pedestrian tram rail_urban rail rail_electric rail_fast ship" speed="11.60" length="37.11" width="3.50" shape="-277.92,-132.91 -279.02,-128.70 -280.00,-126.03 -281.27,-123.47 -282.02,-122.27 -282.88,-121.13 -283.83,-120.07 -284.89,-119.12 -286.05,-118.29 -287.30,-117.61 -288.63,-117.09 -290.01,-116.73 -291.42,-116.53 -292.84,-116.47 -294.26,-116.54 -297.07,-116.99 -299.81,-117.78 -302.47,-118.80 -305.05,-120.00"/>
    </edge>
    <edge id=":55_4" function="internal">
        <lane id=":55_4_0" index="0" disallow="pedestrian tram rail_urban rail rail_electric rail_fast ship" speed="10.55" length="30.46" width="3.50" shape="-303.51,-123.15 -301.23,-122.08 -298.95,-121.20 -296.64,-120.54 -294.29,-120.16 -293.17,-120.11 -292.05,-120.15 -290.95,-120.31 -289.90,-120.58 -288.89,-120.97 -287.94,-121.49 -287.06,-122.11 -286.24,-122.85 -285.49,-123.68 -284.80,-124.60 -284.20,-125.55 -283.13,-127.71 -282.30,-129.96 -281.36,-133.57"/>
    </edge>
    <edge id=":55_5" function="internal">
        <lane id=":55_5_0" index="0" disallow="pedestrian tram rail_urban rail rail_electric rail_fast ship" speed="36.11" length="39.47" width="3.50" shape="-303.51,-123.15 -293.34,-117.88 -280.62,-110.89 -268.96,-104.08"/>
    </edge>
    <edge id=":56_0" function="internal">
        <lane id=":56_0_0" index="0" disallow="pedestrian tram rail_urban rail rail_electric rail_fast ship" speed="36.11" length="40.34" width="3.50" shape="-206.72,-62.52 -222.51,-72.42 -233.95,-79.49 -241.10,-83.61"/>
    </edge>
    <edge id=":56_1" function="internal">
        <lane id=":56_1_0" index="0" disallow="pedestrian tram rail_urban rail rail_electric rail_fast ship" speed="14.85" length="37.60" width="3.50" shape="-206.73,-62.52 -208.69,-63.84 -210.52,-65.32 -212.18,-66.98 -213.65,-68.81 -214.92,-70.79 -215.97,-72.89 -216.80,-75.09 -217.41,-77.35 -217.98,-80.83 -218.17,-84.35 -218.04,-87.87 -217.65,-91.37 -216.81,-95.99"/>
    </edge>
    <edge id=":56_2" function="internal">
        <lane id=":56_2_0" index="0" disallow="pedestrian tram rail_urban rail rail_electric rail_fast ship" speed="14.00" length="33.32" width="3.50" shape="-213.38,-95.29 -214.17,-91.01 -214.53,-87.83 -214.66,-84.65 -214.52,-81.51 -214.04,-78.41 -213.53,-76.44 -212.83,-74.52 -211.95,-72.69 -210.88,-70.98 -209.62,-69.40 -208.20,-67.95 -206.63,-66.66 -204.89,-65.50"/>
    </edge>
    <edge id=":56_3" function="internal">
        <lane id=":56_3_0" index="0" disallow="pedestrian tram rail_urban rail rail_electric rail_fast ship" speed="11.43" length="37.27" width="3.50" shape="-213.38,-95.29 -213.71,-93.90 -214.48,-91.27 -215.49,-88.67 -216.79,-86.19 -217.62,-84.96 -218.54,-83.81 -219.60,-82.75 -220.77,-81.81 -222.07,-81.00 -223.46,-80.37 -224.92,-79.92 -226.40,-79.65 -227.89,-79.54 -229.35,-79.58 -230.79,-79.75 -232.22,-80.02 -234.89,-80.79 -237.47,-81.80 -241.10,-83.61"/>
    </edge>
    <edge id=":56_4" function="internal">
        <lane id=":56_4_0" index="0" disallow="pedestrian tram rail_urban rail rail_electric rail_fast ship" speed="10.37" length="30.48" width="3.50" shape="-239.41,-86.67 -236.27,-85.11 -234.09,-84.25 -231.84,-83.60 -230.69,-83.37 -229.52,-83.24 -228.35,-83.20 -227.18,-83.27 -226.02,-83.47 -224.90,-83.81 -223.83,-84.29 -222.83,-84.90 -221.91,-85.63 -221.08,-86.46 -220.34,-87.37 -219.68,-88.34 -218.59,-90.41 -217.74,-92.60 -217.08,-94.85 -216.81,-95.99"/>
    </edge>
    <edge id=":56_5" function="internal">
        <lane id=":56_5_0" index="0" disallow="pedestrian tram rail_urban rail rail_electric rail_fast ship" speed="36.11" length="40.50" width="3.50" shape="-239.41,-86.67 -232.19,-82.52 -220.71,-75.42 -204.89,-65.50"/>
    </edge>
    <edge id=":57_0" function="internal">
        <lane id=":57_0_0" index="0" disallow="pedestrian tram rail_urban rail rail_electric rail_fast ship" speed="10.37" length="31.77" width="3.50" shape="-197.68,62.09 -199.63,59.00 -201.12,57.06 -202.79,55.28 -203.71,54.47 -204.69,53.74 -205.73,53.10 -206.84,52.59 -208.01,52.23 -209.22,52.03 -210.44,52.01 -211.65,52.17 -212.83,52.49 -213.96,52.95 -215.04,53.52 -216.08,54.18 -217.99,55.70 -219.74,57.40 -222.12,60.20"/>
    </edge>
    <edge id=":57_1" function="internal">
        <lane id=":57_1_0" index="0" disallow="pedestrian tram rail_urban rail rail_electric rail_fast ship" speed="16.08" length="38.67" width="3.50" shape="-197.68,62.09 -199.77,58.20 -201.64,54.17 -203.20,49.98 -204.13,46.72 -204.78,43.38 -205.10,39.96 -205.01,36.52 -204.70,34.20 -204.17,31.92 -203.41,29.71 -202.43,27.59 -201.25,25.59"/>
    </edge>
    <edge id=":57_2" function="internal">
        <lane id=":57_2_0" index="0" disallow="pedestrian tram rail_urban rail rail_electric rail_fast ship" speed="15.28" length="34.83" width="3.50" shape="-198.32,27.49 -199.35,29.26 -200.20,31.13 -200.85,33.07 -201.30,35.07 -201.55,37.11 -201.58,40.18 -201.26,43.24 -200.64,46.25 -199.77,49.20 -198.32,53.04 -196.59,56.76 -194.65,60.34"/>
    </edge>
    <edge id=":57_3" function="internal">
        <lane id=":57_3_0" index="0" disallow="pedestrian tram rail_urban rail rail_electric rail_fast ship" speed="36.11" length="40.46" width="3.50" shape="-198.32,27.49 -204.76,36.91 -213.31,48.65 -222.12,60.20"/>
    </edge>
    <edge id=":57_4" function="internal">
        <lane id=":57_4_0" index="0" disallow="pedestrian tram rail_urban rail rail_electric rail_fast ship" speed="36.11" length="40.16" width="3.50" shape="-224.88,58.05 -216.13,46.57 -207.63,34.91 -201.25,25.59"/>
    </edge>
    <edge id=":57_5" function="internal">
        <lane id=":57_5_0" index="0" disallow="pedestrian tram rail_urban rail rail_electric rail_fast ship" speed="11.43" length="38.95" width="3.50" shape="-224.88,58.05 -222.12,54.81 -220.04,52.78 -217.76,50.97 -216.47,50.14 -215.12,49.43 -213.67,48.85 -212.14,48.43 -210.55,48.22 -208.92,48.23 -207.32,48.49 -205.79,48.97 -204.36,49.63 -203.03,50.43 -201.81,51.33 -200.66,52.34 -198.68,54.46 -196.91,56.77 -194.65,60.34"/>
    </edge>
    <edge id=":58_0" function="internal">
        <lane id=":58_0_0" index="0" disallow="pedestrian tram rail_urban rail rail_electric rail_fast ship" speed="13.20" length="31.94" width="3.50" shape="-252.60,-209.23 -254.69,-208.79 -256.72,-208.15 -258.67,-207.30 -260.52,-206.24 -262.22,-204.96 -263.76,-203.49 -265.13,-201.85 -266.31,-200.08 -267.32,-198.20 -268.53,-195.24 -269.43,-192.18 -270.07,-189.04 -270.49,-185.90"/>
    </edge>
    <edge id=":58_1" function="internal">
        <lane id=":58_1_0" index="0" disallow="pedestrian tram rail_urban rail rail_electric rail_fast ship" speed="11.86" length="35.82" width="3.50" shape="-291.80,-207.14 -287.86,-207.19 -285.17,-206.97 -282.50,-206.49 -279.89,-205.68 -278.57,-205.10 -277.32,-204.41 -276.14,-203.59 -275.04,-202.65 -274.04,-201.60 -273.16,-200.45 -272.42,-199.22 -271.80,-197.93 -271.31,-196.60 -270.93,-195.26 -270.64,-193.88 -270.35,-191.21 -270.32,-188.52 -270.49,-185.90"/>
    </edge>
    <edge id=":58_2" function="internal">
        <lane id=":58_2_0" index="0" disallow="pedestrian tram rail_urban rail rail_electric rail_fast ship" speed="10.82" length="29.62" width="3.50" shape="-273.97,-186.26 -273.82,-188.51 -273.85,-190.79 -274.10,-193.05 -274.34,-194.17 -274.65,-195.26 -275.05,-196.33 -275.55,-197.36 -276.14,-198.33 -276.84,-199.24 -277.62,-200.06 -278.50,-200.79 -279.44,-201.43 -280.44,-201.98 -281.48,-202.44 -283.66,-203.11 -285.91,-203.51 -288.18,-203.69 -291.61,-203.64"/>
    </edge>
    <edge id=":58_3" function="internal">
        <lane id=":58_3_0" index="0" disallow="pedestrian tram rail_urban rail rail_electric rail_fast ship" speed="14.08" length="36.49" width="3.50" shape="-273.97,-186.26 -273.50,-189.75 -272.78,-193.24 -271.75,-196.68 -270.35,-200.01 -269.17,-202.17 -267.78,-204.20 -266.17,-206.09 -264.35,-207.78 -262.35,-209.25 -260.18,-210.48 -257.91,-211.45 -255.57,-212.18 -253.20,-212.68"/>
    </edge>

    <edge id="44720" from="54" to="42" priority="3" type="highway.residential" spreadType="center" length="10.76" shape="-209.62,-211.13 -179.06,-217.80">
        <lane id="44720_0" index="0" disallow="pedestrian tram rail_urban rail rail_electric rail_fast ship" speed="36.11" length="10.76" width="3.50" customShape="1" shape="-189.76,-218.89 -184.93,-218.56 -179.06,-217.80"/>
    </edge>
    <edge id="44721" from="49" to="54" priority="3" type="highway.residential" spreadType="center" length="10.48" shape="-179.58,-214.34 -208.87,-207.72">
        <lane id="44721_0" index="0" disallow="pedestrian tram rail_urban rail rail_electric rail_fast ship" speed="36.11" length="10.48" width="3.50" customShape="1" shape="-179.58,-214.34 -185.26,-215.07 -190.00,-215.40"/>
    </edge>
    <edge id="44723" from="58" to="54" priority="3" type="highway.residential" spreadType="center" length="23.69" shape="-272.56,-202.53 -209.39,-211.17">
        <lane id="44723_0" index="0" disallow="pedestrian tram rail_urban rail rail_electric rail_fast ship" speed="36.11" length="23.69" width="3.50" customShape="1" shape="-253.20,-212.68 -244.04,-214.17 -229.78,-216.21"/>
    </edge>
    <edge id="44724" from="54" to="58" priority="3" type="highway.residential" spreadType="center" length="23.54" shape="-208.92,-207.71 -272.09,-199.07">
        <lane id="44724_0" index="0" disallow="pedestrian tram rail_urban rail rail_electric rail_fast ship" speed="36.11" length="23.54" width="3.50" customShape="1" shape="-229.36,-212.74 -243.51,-210.71 -252.64,-209.23"/>
    </edge>
    <edge id="44726" from="52" to="58" priority="3" type="highway.residential" spreadType="center" length="70.08" shape="-361.29,-214.21 -272.02,-202.54">
        <lane id="44726_0" index="0" disallow="pedestrian tram rail_urban rail rail_electric rail_fast ship" speed="36.11" length="70.08" width="3.50" customShape="1" shape="-361.29,-214.21 -352.16,-213.89 -345.59,-213.36 -338.04,-212.36 -318.06,-208.89 -310.03,-207.75 -303.46,-207.16 -297.38,-206.96 -291.72,-207.14"/>
    </edge>
    <edge id="44727" from="58" to="47" priority="3" type="highway.residential" spreadType="center" length="70.00" shape="-272.47,-199.07 -361.11,-210.70">
        <lane id="44727_0" index="0" disallow="pedestrian tram rail_urban rail rail_electric rail_fast ship" speed="36.11" length="70.00" width="3.50" customShape="1" shape="-291.61,-203.64 -297.25,-203.46 -303.41,-203.65 -310.04,-204.23 -318.12,-205.36 -338.01,-208.81 -345.44,-209.82 -351.89,-210.37 -360.89,-210.70 -361.11,-210.70"/>
    </edge>
    <edge id="44851" from="57" to="41" priority="3" type="highway.residential" spreadType="center" length="70.01" shape="-205.00,48.02 -160.43,121.41">
        <lane id="44851_0" index="0" disallow="pedestrian tram rail_urban rail rail_electric rail_fast ship" speed="36.11" length="70.01" width="3.50" customShape="1" shape="-194.65,60.34 -176.98,91.33 -168.64,106.22 -160.43,121.41"/>
    </edge>
    <edge id="44852" from="50" to="57" priority="3" type="highway.residential" spreadType="center" length="70.01" shape="-163.47,123.15 -207.99,49.83">
        <lane id="44852_0" index="0" disallow="pedestrian tram rail_urban rail rail_electric rail_fast ship" speed="36.11" length="70.01" width="3.50" customShape="1" shape="-163.47,123.15 -171.68,107.95 -180.02,93.07 -197.69,62.08"/>
    </edge>
    <edge id="44913" from="57" to="40" priority="3" type="highway.residential" spreadType="center" length="67.67" shape="-205.17,50.12 -263.59,113.67">
        <lane id="44913_0" index="0" disallow="pedestrian tram rail_urban rail rail_electric rail_fast ship" speed="36.11" length="67.67" width="3.50" customShape="1" shape="-222.12,60.20 -242.85,86.93 -263.59,113.67"/>
    </edge>
    <edge id="44914" from="51" to="57" priority="3" type="highway.residential" spreadType="center" length="67.67" shape="-266.34,111.51 -207.75,47.75">
        <lane id="44914_0" index="0" disallow="pedestrian tram rail_urban rail rail_electric rail_fast ship" speed="36.11" length="67.67" width="3.50" customShape="1" shape="-266.34,111.51 -245.61,84.78 -224.87,58.04"/>
    </edge>
    <edge id="44916" from="53" to="57" priority="3" type="highway.residential" spreadType="center" length="51.65" shape="-160.83,-30.33 -204.97,49.83">
        <lane id="44916_0" index="0" disallow="pedestrian tram rail_urban rail rail_electric rail_fast ship" speed="36.11" length="51.65" width="3.50" customShape="1" shape="-169.96,-15.65 -184.14,5.92 -198.33,27.51"/>
    </edge>
    <edge id="44917" from="57" to="53" priority="3" type="highway.residential" spreadType="center" length="51.65" shape="-208.03,48.14 -163.90,-32.01">
        <lane id="44917_0" index="0" disallow="pedestrian tram rail_urban rail rail_electric rail_fast ship" speed="36.11" length="51.65" width="3.50" customShape="1" shape="-201.25,25.59 -187.06,4.00 -172.88,-17.57"/>
    </edge>
    <edge id="44987" from="58" to="55" priority="3" type="highway.residential" spreadType="center" length="53.59" shape="-270.54,-200.58 -282.86,-118.86">
        <lane id="44987_0" index="0" disallow="pedestrian tram rail_urban rail rail_electric rail_fast ship" speed="36.11" length="53.59" width="3.50" customShape="1" shape="-270.49,-185.90 -271.77,-174.32 -274.17,-154.75 -275.94,-143.26 -277.94,-132.85"/>
    </edge>
    <edge id="44988" from="55" to="58" priority="3" type="highway.residential" spreadType="center" length="53.25" shape="-286.32,-119.38 -274.00,-201.11">
        <lane id="44988_0" index="0" disallow="pedestrian tram rail_urban rail rail_electric rail_fast ship" speed="36.11" length="53.25" width="3.50" customShape="1" shape="-281.36,-133.57 -279.38,-143.88 -277.63,-155.27 -275.25,-174.74 -273.97,-186.28"/>
    </edge>
    <edge id="45056" from="54" to="56" priority="3" type="highway.residential" spreadType="center" length="102.25" shape="-207.41,-209.29 -218.65,-81.42">
        <lane id="45056_0" index="0" disallow="pedestrian tram rail_urban rail rail_electric rail_fast ship" speed="36.11" length="102.25" width="3.50" customShape="1" shape="-206.31,-196.89 -206.21,-195.91 -205.48,-186.83 -205.13,-176.71 -205.15,-166.58 -205.56,-155.95 -206.48,-142.82 -207.74,-130.22 -209.38,-117.67 -211.48,-104.67 -213.39,-95.25"/>
    </edge>
    <edge id="45057" from="56" to="54" priority="3" type="highway.residential" spreadType="center" length="101.14" shape="-222.14,-81.72 -210.90,-209.59">
        <lane id="45057_0" index="0" disallow="pedestrian tram rail_urban rail rail_electric rail_fast ship" speed="36.11" length="101.14" width="3.50" customShape="1" shape="-216.81,-95.99 -214.92,-105.31 -212.84,-118.18 -211.21,-130.61 -209.97,-143.08 -209.06,-156.09 -208.65,-166.60 -208.63,-176.61 -208.98,-186.60 -209.70,-195.58 -209.79,-196.53"/>
    </edge>
    <edge id="45184" from="53" to="20" priority="3" type="highway.residential" spreadType="center" length="70.00" shape="-161.09,-32.37 -100.88,33.87">
        <lane id="45184_0" index="0" disallow="pedestrian tram rail_urban rail rail_electric rail_fast ship" speed="36.11" length="70.00" width="3.50" customShape="1" shape="-143.01,-21.39 -141.85,-20.38 -135.17,-14.27 -130.21,-9.27 -125.54,-4.00 -120.14,2.63 -115.34,9.09 -111.13,15.35 -106.95,22.23 -103.10,29.29 -100.88,33.87"/>
    </edge>
    <edge id="45185" from="35" to="53" priority="3" type="highway.residential" spreadType="center" length="70.04" shape="-103.41,36.69 -163.68,-30.02">
        <lane id="45185_0" index="0" disallow="pedestrian tram rail_urban rail rail_electric rail_fast ship" speed="36.11" length="70.04" width="3.50" customShape="1" shape="-103.41,36.69 -105.95,31.41 -109.74,24.41 -113.85,17.60 -117.99,11.41 -122.72,5.01 -128.06,-1.57 -132.66,-6.76 -137.55,-11.70 -144.17,-17.76 -145.32,-18.76"/>
    </edge>
    <edge id="45187" from="56" to="53" priority="3" type="highway.residential" spreadType="center" length="34.59" shape="-219.27,-82.94 -161.22,-32.49">
        <lane id="45187_0" index="0" disallow="pedestrian tram rail_urban rail rail_electric rail_fast ship" speed="36.11" length="34.59" width="3.50" customShape="1" shape="-204.89,-65.50 -188.00,-55.13 -175.58,-47.13"/>
    </edge>
    <edge id="45188" from="53" to="56" priority="3" type="highway.residential" spreadType="center" length="34.46" shape="-163.51,-29.85 -221.57,-80.30">
        <lane id="45188_0" index="0" disallow="pedestrian tram rail_urban rail rail_electric rail_fast ship" speed="36.11" length="34.46" width="3.50" customShape="1" shape="-177.54,-44.23 -189.87,-52.18 -206.74,-62.53"/>
    </edge>
    <edge id="45190" from="55" to="56" priority="3" type="highway.residential" spreadType="center" length="34.35" shape="-283.71,-120.63 -219.47,-83.08">
        <lane id="45190_0" index="0" disallow="pedestrian tram rail_urban rail rail_electric rail_fast ship" speed="36.11" length="34.35" width="3.50" customShape="1" shape="-268.96,-104.08 -249.05,-92.20 -239.36,-86.65"/>
    </edge>