<routes>
	<vehicle depart="0.1" departLane="0" departPos="11.098554426219273" departSpeed="0.006017377" id="343" type="bus">
		<route edges="45190 45057"/>
	</vehicle>
	<vehicle depart="0.1" departLane="0" departPos="18.347041825628274" departSpeed="0.00048654868" id="38" type="passenger">
		<route edges="45190 45057"/>
	</vehicle>
	<vehicle depart="0.1" departLane="0" departPos="29.293889437188273" departSpeed="0.14797127" id="318" type="passenger">
		<route edges=":55_2 45190"/>
	</vehicle>
	<vehicle depart="0.1" departLane="0" departPos="21.65964393829121" departSpeed="2.6802174" id="324" type="passenger">
		<route edges=":55_3 45194"/>
	</vehicle>
	<vehicle depart="0.1" departLane="0" departPos="24.71245872480023" departSpeed="13.780424" id="329" type="passenger">
		<route edges=":55_1 44988 44723"/>
	</vehicle>
	<vehicle depart="0.1" departLane="0" departPos="10.892490421056012" departSpeed="2.5423128" id="353" type="passenger">
		<route edges=":55_4 44988"/>
	</vehicle>
	<vehicle depart="0.1" departLane="0" departPos="23.895205688421814" departSpeed="0.15651867" id="360" type="passenger">
		<route edges="45193 45190"/>
	</vehicle>
	<vehicle depart="0.1" departLane="0" departPos="2.5" departSpeed="0.78317367" id="366" type="passenger">
		<route edges="45193 45190"/>
	</vehicle>
	<vehicle depart="0.1" departLane="0" departPos="22.765553346198892" departSpeed="1.1437046" id="371" type="passenger">
		<route edges="45622 45193"/>
	</vehicle>
	<vehicle depart="0.1" departLane="0" departPos="6.232847390691484" departSpeed="8.8799975" id="330" type="motorcycle">
		<route edges=":55_1 44988 44723"/>
	</vehicle>
</routes>
