<routes>
	<vehicle depart="0.1" departLane="0" departPos="50.32782119291227" departSpeed="7.8773122" id="331" type="bicycle">
		<route edges="44327 44330 44333 44342 44345"/>
	</vehicle>
	<vehicle depart="0.1" departLane="0" departPos="17.381193925105187" departSpeed="8.5680371" id="37" type="passenger">
		<route edges="44333 44342"/>
	</vehicle>
	<vehicle depart="0.1" departLane="0" departPos="10.229234925085931" departSpeed="6.1481091" id="38" type="passenger">
		<route edges="44330 44333 44342"/>
	</vehicle>
	<vehicle depart="0.1" departLane="0" departPos="2.5" departSpeed="12.628123" id="314" type="passenger">
		<route edges="44342 44345"/>
	</vehicle>
	<vehicle depart="0.1" departLane="0" departPos="9.708775586374482" departSpeed="7.8023512" id="318" type="passenger">
		<route edges=":31_0 44481 44345"/>
	</vehicle>
	<vehicle depart="0.1" departLane="0" departPos="46.303636247214854" departSpeed="5.3091395" id="323" type="passenger">
		<route edges="44404 44481"/>
	</vehicle>
	<vehicle depart="0.1" departLane="0" departPos="6.363522132634141" departSpeed="2.1150422" id="327" type="passenger">
		<route edges=":29_0 44484"/>
	</vehicle>
	<vehicle depart="0.1" departLane="0" departPos="65.74468513948888" departSpeed="0.054495453" id="329" type="passenger">
		<route edges="44327 44484"/>
	</vehicle>
</routes>
