<routes>
	<vehicle depart="0.1" departLane="1" departPos="88.52213919255777" departSpeed="12.23563" id="1" type="passenger">
		<route edges="26 28 24"/>
	</vehicle>
	<vehicle depart="0.1" departLane="0" departPos="0" departSpeed="8.7306907" id="2" type="passenger">
		<route edges="26 27 24"/>
	</vehicle>
	<vehicle depart="0.1" departLane="0" departPos="80.9308549307154" departSpeed="15.435273" id="3" type="passenger">
		<route edges="26 27 24"/>
	</vehicle>
</routes>
