<routes>
	<vehicle depart="0.1" departLane="0" departPos="18.0172428697534" departSpeed="0.31454161" id="39" type="passenger">
		<route edges=":42_0 51394 51475"/>
	</vehicle>
	<vehicle depart="0.1" departLane="0" departPos="15.09190967482924" departSpeed="1.2754929" id="316" type="passenger">
		<route edges="51375 51658"/>
	</vehicle>
	<vehicle depart="0.1" departLane="0" departPos="25.042566723925205" departSpeed="11.815473" id="319" type="passenger">
		<route edges=":39_2 51393 51660 51379"/>
	</vehicle>
	<vehicle depart="0.1" departLane="0" departPos="4.145865215163121" departSpeed="0.099433281" id="322" type="passenger">
		<route edges="51391 51394"/>
	</vehicle>
	<vehicle depart="0.1" departLane="0" departPos="5.698852802279221" departSpeed="1.6830932" id="325" type="passenger">
		<route edges="51375 51658"/>
	</vehicle>
	<vehicle depart="0.1" departLane="0" departPos="18.420457808974938" departSpeed="1.053723" id="334" type="passenger">
		<route edges="51378 51375 51658"/>
	</vehicle>
	<vehicle depart="0.1" departLane="0" departPos="11.492891874866212" departSpeed="0.59232941" id="337" type="passenger">
		<route edges="51378 51375"/>
	</vehicle>
	<vehicle depart="0.1" departLane="0" departPos="2.5" departSpeed="1.0957521" id="341" type="passenger">
		<route edges="51378 51375"/>
	</vehicle>
</routes>
