<!-- generated on Tue Feb  9 22:12:46 2021 by Eclipse SUMO netconvert Version 1.8.0
<configuration xmlns:xsi="http://www.w3.org/2001/XMLSchema-instance" xsi:noNamespaceSchemaLocation="http://sumo.dlr.de/xsd/netconvertConfiguration.xsd">

    <input>
        <node-files value="./converted_scenarios/scenario-factory/DEU_Guetersloh-15_3_I-1-1/DEU_Guetersloh-15_3_I-1-1.nod.xml"/>
        <edge-files value="./converted_scenarios/scenario-factory/DEU_Guetersloh-15_3_I-1-1/DEU_Guetersloh-15_3_I-1-1.edg.xml"/>
        <connection-files value="./converted_scenarios/scenario-factory/DEU_Guetersloh-15_3_I-1-1/DEU_Guetersloh-15_3_I-1-1.con.xml"/>
        <tllogic-files value="./converted_scenarios/scenario-factory/DEU_Guetersloh-15_3_I-1-1/DEU_Guetersloh-15_3_I-1-1.tll.xml"/>
        <type-files value="/home/zen/commonroad-interactive-benchmarks/install/commonroad-map-tool/crmapconverter/sumo_map/templates/DEU.typ.xml"/>
    </input>

    <output>
        <output-file value="./converted_scenarios/scenario-factory/DEU_Guetersloh-15_3_I-1-1/DEU_Guetersloh-15_3_I-1-1.net.xml"/>
    </output>

    <processing>
        <geometry.remove.keep-edges.explicit value="true"/>
        <geometry.avoid-overlap value="true"/>
        <offset.disable-normalization value="true"/>
    </processing>

    <junctions>
        <no-turnarounds value="true"/>
        <junctions.internal-link-detail value="20"/>
    </junctions>

    <report>
        <aggregate-warnings value="5"/>
    </report>

    <random_number>
        <seed value="1234"/>
    </random_number>

</configuration>
--><net xmlns:xsi="http://www.w3.org/2001/XMLSchema-instance" version="1.6" junctionCornerDetail="5" junctionLinkDetail="20" limitTurnSpeed="5.50" xsi:noNamespaceSchemaLocation="http://sumo.dlr.de/xsd/net_file.xsd">

    <location netOffset="0.00,0.00" convBoundary="107.33,-135.49,398.09,149.62" origBoundary="107.33,-135.49,398.09,149.62" projParameter="!"/>

    <type id="highway.bridleway" priority="1" speed="2.78" allow="pedestrian" oneway="1" width="2.00"/>
    <type id="highway.bus_guideway" priority="1" speed="27.78" allow="bus" oneway="1"/>
    <type id="highway.cycleway" priority="1" speed="8.33" allow="bicycle" oneway="0" width="1.00"/>
    <type id="highway.footway" priority="1" speed="2.78" allow="pedestrian" oneway="1" width="2.00"/>
    <type id="highway.ford" priority="1" speed="2.78" allow="army" oneway="0"/>
    <type id="highway.living_street" priority="2" speed="2.78" disallow="tram rail_urban rail rail_electric rail_fast ship" oneway="0"/>
    <type id="highway.motorway" priority="14" speed="39.44" allow="private emergency authority army vip passenger hov taxi bus coach delivery truck trailer motorcycle evehicle custom1 custom2" oneway="1"/>
    <type id="highway.motorway_link" priority="9" speed="22.22" allow="private emergency authority army vip passenger hov taxi bus coach delivery truck trailer motorcycle evehicle custom1 custom2" oneway="1"/>
    <type id="highway.path" priority="1" speed="2.78" allow="pedestrian bicycle" oneway="0" width="2.00"/>
    <type id="highway.pedestrian" priority="1" speed="2.78" allow="pedestrian" oneway="1" width="2.00"/>
    <type id="highway.primary" priority="12" speed="27.78" disallow="pedestrian tram rail_urban rail rail_electric rail_fast ship" oneway="0"/>
    <type id="highway.primary_link" priority="7" speed="22.22" disallow="pedestrian tram rail_urban rail rail_electric rail_fast ship" oneway="0"/>
    <type id="highway.raceway" priority="15" speed="83.33" allow="vip" oneway="0"/>
    <type id="highway.residential" priority="3" speed="13.89" disallow="pedestrian tram rail_urban rail rail_electric rail_fast ship" oneway="0"/>
    <type id="highway.secondary" priority="11" speed="27.78" disallow="pedestrian tram rail_urban rail rail_electric rail_fast ship" oneway="0"/>
    <type id="highway.secondary_link" priority="6" speed="22.22" disallow="pedestrian tram rail_urban rail rail_electric rail_fast ship" oneway="0"/>
    <type id="highway.service" priority="1" speed="5.56" allow="pedestrian delivery bicycle" oneway="0"/>
    <type id="highway.stairs" priority="1" speed="1.39" allow="pedestrian" oneway="1" width="2.00"/>
    <type id="highway.step" priority="1" speed="1.39" allow="pedestrian" oneway="1" width="2.00"/>
    <type id="highway.steps" priority="1" speed="1.39" allow="pedestrian" oneway="1" width="2.00"/>
    <type id="highway.tertiary" priority="10" speed="22.22" disallow="pedestrian tram rail_urban rail rail_electric rail_fast ship" oneway="0"/>
    <type id="highway.tertiary_link" priority="5" speed="22.22" disallow="pedestrian tram rail_urban rail rail_electric rail_fast ship" oneway="0"/>
    <type id="highway.track" priority="1" speed="5.56" allow="pedestrian motorcycle moped bicycle" oneway="0"/>
    <type id="highway.trunk" priority="13" speed="27.78" disallow="pedestrian bicycle tram rail_urban rail rail_electric rail_fast ship" oneway="0"/>
    <type id="highway.trunk_link" priority="8" speed="22.22" disallow="pedestrian bicycle tram rail_urban rail rail_electric rail_fast ship" oneway="0"/>
    <type id="highway.unclassified" priority="4" speed="13.89" disallow="pedestrian tram rail_urban rail rail_electric rail_fast ship" oneway="0"/>
    <type id="highway.unsurfaced" priority="1" speed="8.33" disallow="tram rail_urban rail rail_electric rail_fast ship" oneway="0"/>
    <type id="railway.highspeed" priority="21" speed="69.44" allow="rail_fast" oneway="1"/>
    <type id="railway.light_rail" priority="19" speed="27.78" allow="rail_urban" oneway="1"/>
    <type id="railway.preserved" priority="16" speed="27.78" allow="rail" oneway="1"/>
    <type id="railway.rail" priority="20" speed="44.44" allow="rail" oneway="1"/>
    <type id="railway.subway" priority="18" speed="27.78" allow="rail_urban" oneway="1"/>
    <type id="railway.tram" priority="17" speed="13.89" allow="tram" oneway="1"/>

    <edge id=":56_0" function="internal">
        <lane id=":56_0_0" index="0" disallow="pedestrian tram rail_urban rail rail_electric rail_fast ship" speed="36.11" length="3.01" width="3.50" shape="330.17,43.53 331.57,40.87"/>
    </edge>
    <edge id=":58_0" function="internal">
        <lane id=":58_0_0" index="0" disallow="pedestrian tram rail_urban rail rail_electric rail_fast ship" speed="36.11" length="2.99" width="3.50" shape="332.97,74.19 335.69,75.44"/>
    </edge>
    <edge id=":69_0" function="internal">
        <lane id=":69_0_0" index="0" disallow="pedestrian tram rail_urban rail rail_electric rail_fast ship" speed="36.11" length="2.99" width="3.38" shape="334.24,78.63 331.52,77.38"/>
    </edge>
    <edge id=":71_0" function="internal">
        <lane id=":71_0_0" index="0" disallow="pedestrian tram rail_urban rail rail_electric rail_fast ship" speed="36.11" length="3.01" width="3.50" shape="334.67,42.50 333.27,45.16"/>
    </edge>
    <edge id=":77_0" function="internal">
        <lane id=":77_0_0" index="0" disallow="pedestrian tram rail_urban rail rail_electric rail_fast ship" speed="36.11" length="38.90" width="3.50" shape="287.92,56.16 286.00,55.31 252.48,40.12"/>
    </edge>
    <edge id=":77_1" function="internal">
        <lane id=":77_1_0" index="0" disallow="pedestrian tram rail_urban rail rail_electric rail_fast ship" speed="11.81" length="32.87" width="3.50" shape="287.92,56.16 284.35,54.40 282.10,53.04 279.99,51.48 278.06,49.69 276.40,47.66 275.70,46.55 275.10,45.38 274.61,44.16 274.24,42.90 274.00,41.61 273.87,40.31 273.85,38.99 274.14,36.38 274.77,33.83 275.67,31.37 276.20,30.17"/>
    </edge>
    <edge id=":77_2" function="internal">
        <lane id=":77_2_0" index="0" disallow="pedestrian tram rail_urban rail rail_electric rail_fast ship" speed="10.77" length="27.17" width="3.50" shape="279.37,31.66 278.92,32.66 278.15,34.76 277.64,36.87 277.42,39.03 277.44,40.05 277.55,41.08 277.76,42.09 278.06,43.08 278.45,44.03 278.94,44.95 279.49,45.81 280.87,47.48 282.48,48.95 284.28,50.26 286.20,51.42 289.31,52.95"/>
    </edge>
    <edge id=":77_3" function="internal">
        <lane id=":77_3_0" index="0" disallow="pedestrian tram rail_urban rail rail_electric rail_fast ship" speed="11.92" length="32.09" width="3.50" shape="279.37,31.66 278.16,33.97 276.70,36.18 274.97,38.19 273.95,39.15 272.88,40.00 271.72,40.76 270.49,41.42 269.21,41.95 267.88,42.36 266.53,42.65 265.17,42.82 263.79,42.88 261.14,42.71 258.55,42.23 256.03,41.51 252.48,40.12"/>
    </edge>
    <edge id=":77_4" function="internal">
        <lane id=":77_4_0" index="0" disallow="pedestrian tram rail_urban rail rail_electric rail_fast ship" speed="10.88" length="26.60" width="3.50" shape="253.89,36.91 256.98,38.13 259.11,38.75 261.29,39.16 263.50,39.31 264.61,39.28 265.71,39.15 266.80,38.93 267.86,38.61 268.89,38.20 269.87,37.69 270.81,37.08 271.68,36.40 272.50,35.65 273.95,33.98 275.17,32.13 276.20,30.17"/>
    </edge>
    <edge id=":77_5" function="internal">
        <lane id=":77_5_0" index="0" disallow="pedestrian tram rail_urban rail rail_electric rail_fast ship" speed="36.11" length="38.88" width="3.50" shape="253.89,36.91 287.41,52.11 289.31,52.95"/>
    </edge>
    <edge id=":78_0" function="internal">
        <lane id=":78_0_0" index="0" disallow="pedestrian tram rail_urban rail rail_electric rail_fast ship" speed="36.11" length="38.19" width="3.50" shape="223.43,27.09 198.98,15.93 188.73,11.13"/>
    </edge>
    <edge id=":78_1" function="internal">
        <lane id=":78_1_0" index="0" disallow="pedestrian tram rail_urban rail rail_electric rail_fast ship" speed="11.90" length="32.79" width="3.50" shape="223.43,27.09 219.89,25.31 217.66,23.93 215.57,22.35 213.67,20.54 212.82,19.55 212.04,18.49 211.36,17.37 210.77,16.20 210.30,14.98 209.94,13.72 209.70,12.43 209.58,11.13 209.56,9.82 209.84,7.21 210.45,4.67 211.34,2.20 211.86,1.00"/>
    </edge>
    <edge id=":78_2" function="internal">
        <lane id=":78_2_0" index="0" disallow="pedestrian tram rail_urban rail rail_electric rail_fast ship" speed="10.86" length="27.17" width="3.50" shape="215.04,2.46 214.60,3.47 213.85,5.57 213.34,7.69 213.12,9.85 213.14,10.87 213.25,11.91 213.45,12.92 213.74,13.92 214.13,14.88 214.60,15.80 215.16,16.69 215.79,17.54 216.48,18.33 218.08,19.84 219.86,21.17 221.76,22.35 224.86,23.90"/>
    </edge>
    <edge id=":78_3" function="internal">
        <lane id=":78_3_0" index="0" disallow="pedestrian tram rail_urban rail rail_electric rail_fast ship" speed="11.74" length="31.74" width="3.50" shape="215.04,2.46 214.47,3.63 213.21,5.86 211.68,7.99 209.89,9.92 208.83,10.82 207.72,11.61 206.53,12.30 205.28,12.87 203.97,13.32 202.64,13.64 201.29,13.84 199.91,13.92 197.28,13.77 194.71,13.30 192.22,12.56 188.73,11.13"/>
    </edge>
    <edge id=":78_4" function="internal">
        <lane id=":78_4_0" index="0" disallow="pedestrian tram rail_urban rail rail_electric rail_fast ship" speed="10.67" length="26.15" width="3.50" shape="190.19,7.95 193.21,9.19 195.30,9.82 197.44,10.22 199.62,10.35 200.71,10.29 201.79,10.14 202.85,9.89 203.88,9.54 204.87,9.10 205.82,8.56 206.71,7.93 207.55,7.23 209.04,5.64 210.31,3.88 211.38,1.98 211.86,1.00"/>
    </edge>
    <edge id=":78_5" function="internal">
        <lane id=":78_5_0" index="0" disallow="pedestrian tram rail_urban rail rail_electric rail_fast ship" speed="36.11" length="38.16" width="3.50" shape="190.19,7.95 200.46,12.75 224.86,23.90"/>
    </edge>
    <edge id=":79_0" function="internal">
        <lane id=":79_0_0" index="0" disallow="pedestrian tram rail_urban rail rail_electric rail_fast ship" speed="10.83" length="26.82" width="3.50" shape="237.64,-4.23 234.67,-5.45 232.62,-6.10 230.52,-6.57 228.39,-6.81 226.25,-6.77 225.18,-6.62 224.14,-6.39 223.11,-6.06 222.13,-5.64 221.18,-5.13 220.29,-4.53 219.46,-3.86 217.96,-2.32 216.68,-0.60 215.61,1.26 215.15,2.23"/>
    </edge>
    <edge id=":79_1" function="internal">
        <lane id=":79_1_0" index="0" disallow="pedestrian tram rail_urban rail rail_electric rail_fast ship" speed="10.90" length="27.07" width="3.50" shape="237.64,-4.23 234.18,-5.95 230.84,-7.90 228.72,-9.36 226.73,-11.00 224.94,-12.85 224.15,-13.87 223.46,-14.96 222.90,-16.12 222.49,-17.34 222.26,-18.61 222.22,-19.90 222.37,-21.18 222.69,-22.42 223.17,-23.63"/>
    </edge>
    <edge id=":79_2" function="internal">
        <lane id=":79_2_0" index="0" disallow="pedestrian tram rail_urban rail rail_electric rail_fast ship" speed="9.79" length="21.57" width="3.50" shape="226.36,-22.20 226.02,-21.33 225.81,-20.46 225.74,-19.59 225.82,-18.71 226.04,-17.83 226.40,-16.98 226.88,-16.14 227.46,-15.33 228.10,-14.58 229.65,-13.10 231.35,-11.77 233.17,-10.56 236.09,-8.89 239.10,-7.41"/>
    </edge>
    <edge id=":79_3" function="internal">
        <lane id=":79_3_0" index="0" disallow="pedestrian tram rail_urban rail rail_electric rail_fast ship" speed="36.11" length="26.88" width="3.50" shape="226.36,-22.20 220.75,-9.97 215.15,2.23"/>
    </edge>
    <edge id=":79_4" function="internal">
        <lane id=":79_4_0" index="0" disallow="pedestrian tram rail_urban rail rail_electric rail_fast ship" speed="36.11" length="26.85" width="3.50" shape="211.96,0.77 217.56,-11.43 223.17,-23.63"/>
    </edge>
    <edge id=":79_5" function="internal">
        <lane id=":79_5_0" index="0" disallow="pedestrian tram rail_urban rail rail_electric rail_fast ship" speed="11.86" length="32.41" width="3.50" shape="211.96,0.77 212.53,-0.38 213.79,-2.58 215.31,-4.67 217.11,-6.54 218.16,-7.41 219.27,-8.17 220.45,-8.82 221.68,-9.37 222.96,-9.80 224.27,-10.11 225.62,-10.30 228.21,-10.38 230.78,-10.11 233.27,-9.57 235.68,-8.81 239.10,-7.41"/>
    </edge>
    <edge id=":80_0" function="internal">
        <lane id=":80_0_0" index="0" disallow="pedestrian tram rail_urban rail rail_electric rail_fast ship" speed="36.11" length="36.21" width="3.50" shape="294.83,-1.37 287.15,15.04 279.48,31.43"/>
    </edge>
    <edge id=":80_1" function="internal">
        <lane id=":80_1_0" index="0" disallow="pedestrian tram rail_urban rail rail_electric rail_fast ship" speed="12.20" length="34.38" width="3.50" shape="294.84,-1.37 293.66,0.93 292.33,3.13 290.79,5.23 289.00,7.17 286.97,8.87 285.81,9.63 284.62,10.28 283.36,10.83 282.07,11.27 280.74,11.60 279.39,11.80 278.04,11.90 276.67,11.89 274.06,11.62 271.51,11.04 269.06,10.22 266.69,9.23"/>
    </edge>
    <edge id=":80_2" function="internal">
        <lane id=":80_2_0" index="0" disallow="pedestrian tram rail_urban rail rail_electric rail_fast ship" speed="11.20" length="28.78" width="3.49" shape="268.16,6.05 270.21,6.91 272.31,7.61 274.47,8.10 276.67,8.33 277.77,8.33 278.88,8.25 279.97,8.08 281.05,7.82 282.10,7.46 283.11,7.01 284.08,6.48 285.00,5.87 286.70,4.45 288.19,2.82 289.50,1.03 290.65,-0.86 291.65,-2.83"/>
    </edge>
    <edge id=":80_3" function="internal">
        <lane id=":80_3_0" index="0" disallow="pedestrian tram rail_urban rail rail_electric rail_fast ship" speed="11.75" length="31.86" width="3.50" shape="268.16,6.05 271.70,7.89 273.93,9.33 276.03,10.96 277.92,12.82 278.76,13.85 279.52,14.94 280.18,16.09 280.73,17.30 281.16,18.55 281.47,19.84 281.66,21.16 281.72,22.48 281.66,23.81 281.25,26.43 280.49,28.97 279.48,31.43"/>
    </edge>
    <edge id=":80_4" function="internal">
        <lane id=":80_4_0" index="0" disallow="pedestrian tram rail_urban rail rail_electric rail_fast ship" speed="10.70" length="26.29" width="3.50" shape="276.30,29.97 277.17,27.87 277.79,25.76 278.12,23.59 278.15,22.56 278.09,21.51 277.94,20.48 277.68,19.47 277.33,18.49 276.88,17.55 276.35,16.64 275.73,15.77 275.05,14.96 273.46,13.41 271.68,12.04 269.77,10.83 266.69,9.23"/>
    </edge>
    <edge id=":80_5" function="internal">
        <lane id=":80_5_0" index="0" disallow="pedestrian tram rail_urban rail rail_electric rail_fast ship" speed="36.11" length="36.21" width="3.49" shape="276.30,29.97 283.98,13.55 291.65,-2.83"/>
    </edge>
    <edge id=":81_0" function="internal">
        <lane id=":81_0_0" index="0" disallow="pedestrian tram rail_urban rail rail_electric rail_fast ship" speed="13.99" length="35.20" width="3.50" shape="188.46,11.00 185.51,9.80 182.42,8.95 180.32,8.61 178.19,8.48 176.05,8.56 173.94,8.85 171.87,9.35 169.85,10.05 167.90,10.91 165.12,12.50 162.51,14.36 160.08,16.43 157.80,18.69 157.07,19.47"/>
    </edge>
    <edge id=":81_1" function="internal">
        <lane id=":81_1_0" index="0" disallow="pedestrian tram rail_urban rail rail_electric rail_fast ship" speed="36.11" length="42.60" width="3.50" shape="188.46,11.00 160.19,-2.08 149.76,-6.80"/>
    </edge>
    <edge id=":81_2" function="internal">
        <lane id=":81_2_0" index="0" disallow="pedestrian tram rail_urban rail rail_electric rail_fast ship" speed="11.91" length="34.40" width="3.50" shape="188.46,11.00 185.11,9.21 182.95,7.76 180.93,6.07 179.14,4.14 178.32,3.02 177.62,1.85 177.02,0.60 176.54,-0.69 176.19,-2.03 175.98,-3.39 175.89,-4.76 175.92,-6.15 176.30,-8.76 177.00,-11.30 177.96,-13.72 179.73,-17.11"/>
    </edge>
    <edge id=":81_3" function="internal">
        <lane id=":81_3_0" index="0" disallow="pedestrian tram rail_urban rail rail_electric rail_fast ship" speed="10.85" length="28.51" width="3.50" shape="182.77,-15.39 181.22,-12.42 180.42,-10.38 179.83,-8.27 179.52,-6.10 179.49,-5.01 179.56,-3.91 179.74,-2.83 180.01,-1.77 180.39,-0.75 180.87,0.24 181.43,1.18 182.08,2.06 183.56,3.67 185.25,5.07 187.06,6.29 189.94,7.83"/>
    </edge>
    <edge id=":81_4" function="internal">
        <lane id=":81_4_0" index="0" disallow="pedestrian tram rail_urban rail rail_electric rail_fast ship" speed="36.11" length="43.38" width="3.50" shape="182.77,-15.38 178.42,-8.30 173.83,-1.45 168.96,5.21 163.83,11.68 158.45,17.94 157.07,19.47"/>
    </edge>
    <edge id=":81_5" function="internal">
        <lane id=":81_5_0" index="0" disallow="pedestrian tram rail_urban rail rail_electric rail_fast ship" speed="13.32" length="38.21" width="3.50" shape="182.77,-15.38 180.63,-12.15 179.02,-10.19 177.22,-8.39 175.23,-6.81 173.06,-5.48 170.74,-4.46 168.29,-3.76 165.78,-3.38 163.24,-3.31 160.70,-3.51 158.20,-3.94 154.52,-4.94 150.95,-6.29 149.76,-6.80"/>
    </edge>
    <edge id=":81_6" function="internal">
        <lane id=":81_6_0" index="0" disallow="pedestrian tram rail_urban rail rail_electric rail_fast ship" speed="12.40" length="32.99" width="3.50" shape="151.20,-9.99 152.25,-9.54 155.45,-8.32 158.72,-7.43 160.89,-7.05 163.08,-6.87 165.25,-6.91 167.38,-7.21 169.44,-7.79 171.39,-8.63 173.23,-9.74 174.92,-11.07 176.47,-12.61 177.86,-14.30 179.73,-17.11"/>
    </edge>
    <edge id=":81_7" function="internal">
        <lane id=":81_7_0" index="0" disallow="pedestrian tram rail_urban rail rail_electric rail_fast ship" speed="36.11" length="42.64" width="3.50" shape="151.20,-9.99 161.64,-5.26 189.94,7.83"/>
    </edge>
    <edge id=":81_8" function="internal">
        <lane id=":81_8_0" index="0" disallow="pedestrian tram rail_urban rail rail_electric rail_fast ship" speed="11.53" length="37.82" width="3.50" shape="151.20,-9.99 155.11,-8.01 157.56,-6.44 159.83,-4.63 160.87,-3.61 161.82,-2.51 162.66,-1.33 163.37,-0.06 163.91,1.29 164.28,2.70 164.45,4.14 164.44,5.59 164.26,7.03 163.93,8.45 163.47,9.83 162.24,12.46 160.71,14.93 158.97,17.26 157.07,19.47"/>
    </edge>
    <edge id=":81_9" function="internal">
        <lane id=":81_9_0" index="0" disallow="pedestrian tram rail_urban rail rail_electric rail_fast ship" speed="10.47" length="30.97" width="3.50" shape="154.48,17.12 156.13,15.20 157.63,13.20 158.92,11.11 159.95,8.91 160.31,7.83 160.58,6.72 160.72,5.61 160.73,4.51 160.60,3.42 160.33,2.37 159.92,1.36 159.38,0.38 158.72,-0.54 157.96,-1.42 157.14,-2.23 155.22,-3.76 153.15,-5.08 149.76,-6.80"/>
    </edge>
    <edge id=":81_10" function="internal">
        <lane id=":81_10_0" index="0" disallow="pedestrian tram rail_urban rail rail_electric rail_fast ship" speed="36.11" length="42.61" width="3.50" shape="154.48,17.12 155.84,15.61 161.13,9.45 166.17,3.10 170.96,-3.45 175.48,-10.19 179.73,-17.11"/>
    </edge>
    <edge id=":81_11" function="internal">
        <lane id=":81_11_0" index="0" disallow="pedestrian tram rail_urban rail rail_electric rail_fast ship" speed="14.89" length="39.67" width="3.50" shape="154.48,17.12 155.30,16.24 157.80,13.77 160.50,11.48 163.42,9.41 166.54,7.65 168.77,6.68 171.07,5.90 173.45,5.35 175.87,5.03 178.31,4.95 180.74,5.12 183.16,5.52 186.63,6.48 189.94,7.83"/>
    </edge>
    <edge id=":82_0" function="internal">
        <lane id=":82_0_0" index="0" disallow="pedestrian tram rail_urban rail rail_electric rail_fast ship" speed="9.18" length="18.32" width="3.50" shape="322.49,73.05 321.98,73.44 321.37,73.97 320.73,74.63 320.07,75.36 318.79,76.99 316.98,79.61 314.72,83.27 312.05,87.97"/>
    </edge>
    <edge id=":82_1" function="internal">
        <lane id=":82_1_0" index="0" disallow="pedestrian tram rail_urban rail rail_electric rail_fast ship" speed="36.11" length="22.87" width="3.50" shape="322.56,73.13 316.62,70.07 307.21,64.79 302.36,62.41"/>
    </edge>
    <edge id=":82_2" function="internal">
        <lane id=":82_2_0" index="0" disallow="pedestrian tram rail_urban rail rail_electric rail_fast ship" speed="8.01" length="13.80" width="3.50" shape="322.56,73.13 321.13,72.23 320.31,70.98 319.93,69.55 319.87,68.05 320.03,66.57 320.34,65.11 321.23,62.25 321.85,60.71"/>
    </edge>
    <edge id=":82_3" function="internal">
        <lane id=":82_3_0" index="0" disallow="pedestrian tram rail_urban rail rail_electric rail_fast ship" speed="7.52" length="12.21" width="3.43" shape="325.10,62.00 324.59,63.28 323.85,65.47 323.59,66.52 323.42,67.56 323.37,68.54 323.49,69.34 323.66,69.73 327.39,71.60"/>
    </edge>
    <edge id=":82_4" function="internal">
        <lane id=":82_4_0" index="0" disallow="pedestrian tram rail_urban rail rail_electric rail_fast ship" speed="36.11" length="29.08" width="3.50" shape="325.10,62.00 322.83,67.13 318.57,75.75 312.05,87.97"/>
    </edge>
    <edge id=":82_5" function="internal">
        <lane id=":82_5_0" index="0" disallow="pedestrian tram rail_urban rail rail_electric rail_fast ship" speed="10.60" length="25.34" width="3.50" shape="325.10,62.00 324.41,63.37 323.59,64.41 322.59,65.27 321.43,65.90 320.18,66.32 318.87,66.55 317.56,66.63 314.92,66.45 312.32,65.96 308.51,64.86 304.80,63.46 302.36,62.41"/>
    </edge>
    <edge id=":82_6" function="internal">
        <lane id=":82_6_0" index="0" disallow="pedestrian tram rail_urban rail rail_electric rail_fast ship" speed="9.41" length="19.71" width="3.50" shape="303.75,59.20 305.92,60.14 309.12,61.37 312.37,62.38 314.52,62.86 316.67,63.11 317.66,63.12 318.63,63.03 319.52,62.83 320.28,62.52 320.89,62.10 321.39,61.57 321.85,60.71"/>
    </edge>
    <edge id=":82_7" function="internal">
        <lane id=":82_7_0" index="0" disallow="pedestrian tram rail_urban rail rail_electric rail_fast ship" speed="36.11" length="26.70" width="3.43" shape="303.75,59.20 308.76,61.65 318.21,66.95 327.39,71.60"/>
    </edge>
    <edge id=":82_8" function="internal">
        <lane id=":82_8_0" index="0" disallow="pedestrian tram rail_urban rail rail_electric rail_fast ship" speed="11.94" length="35.02" width="3.50" shape="303.75,59.20 306.22,60.41 308.51,61.81 310.65,63.44 311.64,64.36 312.55,65.35 313.38,66.40 314.11,67.53 314.74,68.72 315.25,69.96 315.63,71.25 315.89,72.57 316.03,73.91 316.05,75.26 315.79,77.93 315.20,80.55 314.34,83.10 312.68,86.78 312.05,87.97"/>
    </edge>
    <edge id=":82_9" function="internal">
        <lane id=":82_9_0" index="0" disallow="pedestrian tram rail_urban rail rail_electric rail_fast ship" speed="10.91" length="29.10" width="3.50" shape="308.98,86.30 309.52,85.27 310.98,82.04 311.72,79.87 312.23,77.67 312.45,75.43 312.44,74.38 312.34,73.30 312.14,72.26 311.85,71.24 311.46,70.26 310.97,69.31 310.39,68.41 309.73,67.56 308.99,66.76 308.21,66.02 306.40,64.63 304.45,63.44 302.36,62.41"/>
    </edge>
    <edge id=":82_10" function="internal">
        <lane id=":82_10_0" index="0" disallow="pedestrian tram rail_urban rail rail_electric rail_fast ship" speed="36.11" length="28.65" width="3.50" shape="308.98,86.30 315.43,74.19 319.64,65.68 321.85,60.71"/>
    </edge>
    <edge id=":82_11" function="internal">
        <lane id=":82_11_0" index="0" disallow="pedestrian tram rail_urban rail rail_electric rail_fast ship" speed="11.16" length="27.11" width="3.43" shape="308.98,86.30 312.03,80.98 314.69,76.87 316.90,73.94 318.54,72.12 319.45,71.29 320.42,70.56 321.50,69.98 322.69,69.71 327.39,71.60"/>
    </edge>
    <edge id=":83_0" function="internal">
        <lane id=":83_0_0" index="0" disallow="pedestrian tram rail_urban rail rail_electric rail_fast ship" speed="36.11" length="30.15" width="3.50" shape="322.79,-87.61 322.04,-85.81 321.51,-83.96 321.17,-82.06 320.95,-79.07 321.02,-76.04 321.65,-68.70 321.88,-64.38 321.78,-61.05 321.34,-57.79"/>
    </edge>
    <edge id=":83_1" function="internal">
        <lane id=":83_1_0" index="0" disallow="pedestrian tram rail_urban rail rail_electric rail_fast ship" speed="12.21" length="34.43" width="3.50" shape="322.79,-87.61 320.87,-84.10 319.36,-81.92 317.64,-79.91 315.67,-78.14 314.60,-77.37 313.47,-76.69 312.28,-76.11 311.04,-75.63 309.77,-75.26 308.47,-75.01 307.16,-74.87 304.51,-74.88 301.90,-75.26 299.33,-75.92 296.84,-76.81 294.42,-77.88"/>
    </edge>
    <edge id=":83_2" function="internal">
        <lane id=":83_2_0" index="0" disallow="pedestrian tram rail_urban rail rail_electric rail_fast ship" speed="11.21" length="28.86" width="3.50" shape="295.93,-81.04 298.05,-80.10 300.20,-79.32 302.38,-78.76 304.57,-78.45 306.78,-78.43 307.81,-78.55 308.86,-78.75 309.88,-79.04 310.86,-79.42 311.82,-79.89 312.73,-80.44 313.59,-81.05 315.24,-82.53 316.68,-84.22 317.96,-86.06 319.63,-89.13"/>
    </edge>
    <edge id=":83_3" function="internal">
        <lane id=":83_3_0" index="0" disallow="pedestrian tram rail_urban rail rail_electric rail_fast ship" speed="13.65" length="36.28" width="3.50" shape="295.93,-81.04 296.96,-80.54 302.88,-77.48 307.71,-74.69 311.48,-72.22 314.22,-70.17 316.80,-67.88 318.42,-66.14 319.83,-64.20 320.46,-63.07 320.97,-61.87 321.32,-60.56 321.45,-59.18 321.34,-57.79"/>
    </edge>
    <edge id=":83_4" function="internal">
        <lane id=":83_4_0" index="0" disallow="pedestrian tram rail_urban rail rail_electric rail_fast ship" speed="12.74" length="31.59" width="3.50" shape="317.92,-58.63 317.98,-59.41 317.82,-60.43 317.49,-61.40 317.02,-62.31 316.46,-63.17 315.15,-64.75 313.68,-66.18 311.29,-68.13 308.78,-69.91 305.30,-72.10 300.83,-74.62 295.35,-77.43 294.42,-77.88"/>
    </edge>
    <edge id=":83_5" function="internal">
        <lane id=":83_5_0" index="0" disallow="pedestrian tram rail_urban rail rail_electric rail_fast ship" speed="36.11" length="30.85" width="3.50" shape="317.93,-58.63 318.33,-61.57 318.43,-64.78 318.22,-69.06 317.63,-76.54 317.57,-79.75 317.82,-82.95 318.20,-85.06 318.80,-87.12 319.63,-89.13"/>
    </edge>
    <edge id=":84_0" function="internal">
        <lane id=":84_0_0" index="0" disallow="pedestrian tram rail_urban rail rail_electric rail_fast ship" speed="11.21" length="28.33" width="3.50" shape="211.47,-38.39 209.43,-39.25 207.35,-39.87 205.21,-40.19 204.19,-40.22 203.15,-40.17 202.13,-40.02 201.12,-39.78 200.14,-39.45 199.19,-39.03 198.26,-38.53 197.40,-37.96 195.69,-36.58 194.17,-35.00 192.79,-33.27 190.92,-30.40 189.30,-27.34"/>
    </edge>
    <edge id=":84_1" function="internal">
        <lane id=":84_1_0" index="0" disallow="pedestrian tram rail_urban rail rail_electric rail_fast ship" speed="13.27" length="36.12" width="3.49" shape="211.47,-38.39 209.31,-39.47 206.18,-41.24 203.15,-43.25 200.31,-45.55 198.54,-47.29 196.93,-49.21 195.53,-51.32 194.39,-53.60 193.58,-56.05 193.14,-58.58 193.07,-61.15 193.34,-63.68 193.89,-66.10"/>
    </edge>
    <edge id=":84_2" function="internal">
        <lane id=":84_2_0" index="0" disallow="pedestrian tram rail_urban rail rail_electric rail_fast ship" speed="12.30" length="31.07" width="3.50" shape="197.23,-65.05 196.79,-63.08 196.57,-60.94 196.66,-58.79 197.07,-56.68 197.79,-54.65 198.79,-52.74 200.02,-50.98 201.43,-49.36 202.99,-47.87 205.52,-45.87 208.22,-44.10 211.04,-42.52 212.96,-41.56"/>
    </edge>
    <edge id=":84_3" function="internal">
        <lane id=":84_3_0" index="0" disallow="pedestrian tram rail_urban rail rail_electric rail_fast ship" speed="36.11" length="38.68" width="3.50" shape="197.23,-65.05 196.25,-61.11 195.34,-55.94 193.62,-42.42 192.68,-37.27 191.61,-33.21 190.57,-30.24 189.30,-27.34"/>
    </edge>
    <edge id=":84_4" function="internal">
        <lane id=":84_4_0" index="0" disallow="pedestrian tram rail_urban rail rail_electric rail_fast ship" speed="36.11" length="38.16" width="3.49" shape="186.15,-28.88 187.36,-31.63 188.34,-34.44 189.36,-38.34 190.27,-43.34 191.95,-56.76 192.87,-61.98 193.89,-66.10"/>
    </edge>
    <edge id=":84_5" function="internal">
        <lane id=":84_5_0" index="0" disallow="pedestrian tram rail_urban rail rail_electric rail_fast ship" speed="12.25" length="33.85" width="3.50" shape="186.15,-28.88 188.00,-32.34 190.14,-35.60 191.78,-37.63 193.60,-39.48 195.64,-41.10 196.74,-41.79 197.90,-42.39 199.10,-42.90 200.34,-43.29 201.61,-43.57 202.90,-43.74 204.20,-43.79 205.50,-43.73 208.07,-43.31 210.56,-42.57 212.96,-41.56"/>
    </edge>
    <edge id=":85_0" function="internal">
        <lane id=":85_0_0" index="0" disallow="pedestrian tram rail_urban rail rail_electric rail_fast ship" speed="30.02" length="37.16" width="3.50" shape="263.01,-93.10 252.56,-98.08 242.05,-102.82 235.31,-105.59 231.46,-106.92 229.61,-107.38 228.83,-107.46"/>
    </edge>
    <edge id=":85_1" function="internal">