<routes>
	<vehicle depart="0.1" departLane="1" departPos="115.70032439889219" departSpeed="8.7074309" id="1" type="passenger">
		<route edges="26 28 24"/>
	</vehicle>
	<vehicle depart="0.1" departLane="0" departPos="0" departSpeed="10.642002" id="2" type="passenger">
		<route edges="26 27 24"/>
	</vehicle>
	<vehicle depart="0.1" departLane="0" departPos="85.66567314982373" departSpeed="8.7230764" id="3" type="passenger">
		<route edges="26 26 28 24"/>
	</vehicle>
</routes>
