<routes>
	<vehicle depart="0.1" departLane="1" departPos="10.8856719778705" departSpeed="13.023882" id="38" type="passenger">
		<route edges=":19_0 37975 38220"/>
	</vehicle>
	<vehicle depart="0.1" departLane="0" departPos="19.587895324694866" departSpeed="10.132052" id="310" type="passenger">
		<route edges="37927 37975"/>
	</vehicle>
	<vehicle depart="0.1" departLane="0" departPos="32.362141664879786" departSpeed="11.943275" id="311" type="motorcycle">
		<route edges="37927 37975 38220 38689"/>
	</vehicle>
	<vehicle depart="0.1" departLane="0" departPos="3.75" departSpeed="1.499282" id="37" type="truck">
		<route edges=":13_0 37798 38622"/>
	</vehicle>
</routes>
