<!-- generated on Tue Feb  9 22:18:55 2021 by Eclipse SUMO netconvert Version 1.8.0
<configuration xmlns:xsi="http://www.w3.org/2001/XMLSchema-instance" xsi:noNamespaceSchemaLocation="http://sumo.dlr.de/xsd/netconvertConfiguration.xsd">

    <input>
        <node-files value="./converted_scenarios/scenario-factory/DEU_Rheinbach-5_2_I-1-1/DEU_Rheinbach-5_2_I-1-1.nod.xml"/>
        <edge-files value="./converted_scenarios/scenario-factory/DEU_Rheinbach-5_2_I-1-1/DEU_Rheinbach-5_2_I-1-1.edg.xml"/>
        <connection-files value="./converted_scenarios/scenario-factory/DEU_Rheinbach-5_2_I-1-1/DEU_Rheinbach-5_2_I-1-1.con.xml"/>
        <tllogic-files value="./converted_scenarios/scenario-factory/DEU_Rheinbach-5_2_I-1-1/DEU_Rheinbach-5_2_I-1-1.tll.xml"/>
        <type-files value="/home/zen/commonroad-interactive-benchmarks/install/commonroad-map-tool/crmapconverter/sumo_map/templates/DEU.typ.xml"/>
    </input>

    <output>
        <output-file value="./converted_scenarios/scenario-factory/DEU_Rheinbach-5_2_I-1-1/DEU_Rheinbach-5_2_I-1-1.net.xml"/>
    </output>

    <processing>
        <geometry.remove.keep-edges.explicit value="true"/>
        <geometry.avoid-overlap value="true"/>
        <offset.disable-normalization value="true"/>
    </processing>

    <junctions>
        <no-turnarounds value="true"/>
        <junctions.internal-link-detail value="20"/>
    </junctions>

    <report>
        <aggregate-warnings value="5"/>
    </report>

    <random_number>
        <seed value="1234"/>
    </random_number>

</configuration>
--><net xmlns:xsi="http://www.w3.org/2001/XMLSchema-instance" version="1.6" junctionCornerDetail="5" junctionLinkDetail="20" limitTurnSpeed="5.50" xsi:noNamespaceSchemaLocation="http://sumo.dlr.de/xsd/net_file.xsd">

    <location netOffset="0.00,0.00" convBoundary="291.40,-852.83,557.61,-780.09" origBoundary="291.40,-852.83,558.80,-778.80" projParameter="!"/>

    <type id="highway.bridleway" priority="1" speed="2.78" allow="pedestrian" oneway="1" width="2.00"/>
    <type id="highway.bus_guideway" priority="1" speed="27.78" allow="bus" oneway="1"/>
    <type id="highway.cycleway" priority="1" speed="8.33" allow="bicycle" oneway="0" width="1.00"/>
    <type id="highway.footway" priority="1" speed="2.78" allow="pedestrian" oneway="1" width="2.00"/>
    <type id="highway.ford" priority="1" speed="2.78" allow="army" oneway="0"/>
    <type id="highway.living_street" priority="2" speed="2.78" disallow="tram rail_urban rail rail_electric rail_fast ship" oneway="0"/>
    <type id="highway.motorway" priority="14" speed="39.44" allow="private emergency authority army vip passenger hov taxi bus coach delivery truck trailer motorcycle evehicle custom1 custom2" oneway="1"/>
    <type id="highway.motorway_link" priority="9" speed="22.22" allow="private emergency authority army vip passenger hov taxi bus coach delivery truck trailer motorcycle evehicle custom1 custom2" oneway="1"/>
    <type id="highway.path" priority="1" speed="2.78" allow="pedestrian bicycle" oneway="0" width="2.00"/>
    <type id="highway.pedestrian" priority="1" speed="2.78" allow="pedestrian" oneway="1" width="2.00"/>
    <type id="highway.primary" priority="12" speed="27.78" disallow="pedestrian tram rail_urban rail rail_electric rail_fast ship" oneway="0"/>
    <type id="highway.primary_link" priority="7" speed="22.22" disallow="pedestrian tram rail_urban rail rail_electric rail_fast ship" oneway="0"/>
    <type id="highway.raceway" priority="15" speed="83.33" allow="vip" oneway="0"/>
    <type id="highway.residential" priority="3" speed="13.89" disallow="pedestrian tram rail_urban rail rail_electric rail_fast ship" oneway="0"/>
    <type id="highway.secondary" priority="11" speed="27.78" disallow="pedestrian tram rail_urban rail rail_electric rail_fast ship" oneway="0"/>
    <type id="highway.secondary_link" priority="6" speed="22.22" disallow="pedestrian tram rail_urban rail rail_electric rail_fast ship" oneway="0"/>
    <type id="highway.service" priority="1" speed="5.56" allow="pedestrian delivery bicycle" oneway="0"/>
    <type id="highway.stairs" priority="1" speed="1.39" allow="pedestrian" oneway="1" width="2.00"/>
    <type id="highway.step" priority="1" speed="1.39" allow="pedestrian" oneway="1" width="2.00"/>
    <type id="highway.steps" priority="1" speed="1.39" allow="pedestrian" oneway="1" width="2.00"/>
    <type id="highway.tertiary" priority="10" speed="22.22" disallow="pedestrian tram rail_urban rail rail_electric rail_fast ship" oneway="0"/>
    <type id="highway.tertiary_link" priority="5" speed="22.22" disallow="pedestrian tram rail_urban rail rail_electric rail_fast ship" oneway="0"/>
    <type id="highway.track" priority="1" speed="5.56" allow="pedestrian motorcycle moped bicycle" oneway="0"/>
    <type id="highway.trunk" priority="13" speed="27.78" disallow="pedestrian bicycle tram rail_urban rail rail_electric rail_fast ship" oneway="0"/>
    <type id="highway.trunk_link" priority="8" speed="22.22" disallow="pedestrian bicycle tram rail_urban rail rail_electric rail_fast ship" oneway="0"/>
    <type id="highway.unclassified" priority="4" speed="13.89" disallow="pedestrian tram rail_urban rail rail_electric rail_fast ship" oneway="0"/>
    <type id="highway.unsurfaced" priority="1" speed="8.33" disallow="tram rail_urban rail rail_electric rail_fast ship" oneway="0"/>
    <type id="railway.highspeed" priority="21" speed="69.44" allow="rail_fast" oneway="1"/>
    <type id="railway.light_rail" priority="19" speed="27.78" allow="rail_urban" oneway="1"/>
    <type id="railway.preserved" priority="16" speed="27.78" allow="rail" oneway="1"/>
    <type id="railway.rail" priority="20" speed="44.44" allow="rail" oneway="1"/>
    <type id="railway.subway" priority="18" speed="27.78" allow="rail_urban" oneway="1"/>
    <type id="railway.tram" priority="17" speed="13.89" allow="tram" oneway="1"/>

    <edge id=":13_0" function="internal">
        <lane id=":13_0_0" index="0" disallow="pedestrian tram rail_urban rail rail_electric rail_fast ship" speed="5.19" length="2.13" width="3.50" shape="370.72,-832.41 368.59,-832.38"/>
    </edge>
    <edge id=":13_1" function="internal">
        <lane id=":13_1_0" index="0" disallow="pedestrian tram rail_urban rail rail_electric rail_fast ship" speed="36.11" length="10.29" width="3.50" shape="372.36,-838.30 366.60,-839.89 362.41,-840.94"/>
    </edge>
    <edge id=":14_0" function="internal">
        <lane id=":14_0_0" index="0" disallow="pedestrian tram rail_urban rail rail_electric rail_fast ship" speed="36.11" length="3.00" width="3.50" shape="361.94,-841.15 358.98,-841.66"/>
    </edge>
    <edge id=":16_0" function="internal">
        <lane id=":16_0_0" index="0" disallow="pedestrian tram rail_urban rail rail_electric rail_fast ship" speed="36.11" length="0.10" width="3.50" shape="359.51,-830.09 359.51,-830.09"/>
    </edge>
    <edge id=":18_0" function="internal">
        <lane id=":18_0_0" index="0" disallow="pedestrian tram rail_urban rail rail_electric rail_fast ship" speed="36.11" length="8.01" width="3.50" shape="496.97,-804.78 493.06,-805.74 489.19,-806.68"/>
        <lane id=":18_0_1" index="1" disallow="pedestrian tram rail_urban rail rail_electric rail_fast ship" speed="36.11" length="8.21" width="3.50" shape="497.64,-807.31 489.44,-807.66"/>
    </edge>
    <edge id=":19_0" function="internal">
        <lane id=":19_0_0" index="0" disallow="pedestrian tram rail_urban rail rail_electric rail_fast ship" speed="36.11" length="8.16" width="3.50" shape="422.46,-823.30 414.33,-823.96"/>
        <lane id=":19_0_1" index="1" disallow="pedestrian tram rail_urban rail rail_electric rail_fast ship" speed="36.11" length="8.02" width="3.50" shape="422.72,-824.20 418.87,-825.29 415.01,-826.39"/>
    </edge>

    <edge id="37798" from="13" to="16" priority="3" type="highway.residential" spreadType="center" length="9.03">
        <lane id="37798_0" index="0" disallow="pedestrian tram rail_urban rail rail_electric rail_fast ship" speed="36.11" length="9.03" width="3.50" customShape="1" shape="367.37,-834.54 359.62,-830.15 359.51,-830.09"/>
    </edge>
    <edge id="37927" from="18" to="19" priority="3" type="highway.residential" spreadType="center" length="68.75">
        <lane id="37927_0" index="0" disallow="pedestrian tram rail_urban rail rail_electric rail_fast ship" speed="36.11" length="68.75" width="3.50" customShape="1" shape="489.18,-806.64 457.07,-814.64 440.45,-819.15 422.72,-824.21"/>
    </edge>
    <edge id="37975" from="19" to="13" priority="3" type="highway.residential" spreadType="center" length="44.28">
        <lane id="37975_0" index="0" disallow="pedestrian tram rail_urban rail rail_electric rail_fast ship" speed="36.11" length="44.28" width="3.50" customShape="1" shape="414.07,-823.03 401.22,-826.65 371.45,-835.03"/>
        <lane id="37975_1" index="1" disallow="pedestrian tram rail_urban rail rail_electric rail_fast ship" speed="36.11" length="44.28" width="3.50" customShape="1" shape="415.01,-826.40 402.17,-830.02 372.39,-838.40"/>
    </edge>
    <edge id="38075" from="12" to="18" priority="3" type="highway.residential" spreadType="center" length="65.87">
        <lane id="38075_0" index="0" disallow="pedestrian tram rail_urban rail rail_electric rail_fast ship" speed="36.11" length="65.87" width="3.50" customShape="1" shape="556.43,-778.80 549.91,-785.01 547.68,-786.78 544.33,-788.84 540.36,-790.87 535.29,-793.01 521.02,-798.18 512.78,-800.69 497.03,-805.03"/>
        <lane id="38075_1" index="1" disallow="pedestrian tram rail_urban rail rail_electric rail_fast ship" speed="36.11" length="67.59" width="3.50" customShape="1" shape="558.82,-781.36 552.06,-787.78 549.62,-789.68 546.11,-791.85 541.98,-793.98 536.75,-796.20 522.19,-801.47 513.79,-804.04 497.93,-808.41"/>
    </edge>
    <edge id="38220" from="13" to="14" priority="3" type="highway.residential" spreadType="center" length="0.51">
        <lane id="38220_0" index="0" disallow="pedestrian tram rail_urban rail rail_electric rail_fast ship" speed="36.11" length="0.51" width="3.50" customShape="1" shape="362.44,-841.06 361.94,-841.15"/>
    </edge>
    <edge id="38622" from="16" to="17" priority="3" type="highway.residential" spreadType="center" length="21.56">
        <lane id="38622_0" index="0" disallow="pedestrian tram rail_urban rail rail_electric rail_fast ship" speed="36.11" length="21.56" width="3.50" customShape="1" shape="359.51,-830.09 357.30,-828.66 355.27,-826.99 353.46,-825.09 351.90,-822.97 350.61,-820.68 349.40,-817.77 348.53,-814.73 348.13,-812.67"/>
    </edge>
    <edge id="38689" from="14" to="15" priority="3" type="highway.residential" spreadType="center" length="68.50">
        <lane id="38689_0" index="0" disallow="pedestrian tram rail_urban rail rail_electric rail_fast ship" speed="36.11" length="68.50" width="3.50" customShape="1" shape="358.98,-841.66 352.05,-842.85 291.40,-852.83"/>
    </edge>

    <junction id="12" type="dead_end" x="557.61" y="-780.09" incLanes="" intLanes="" shape="560.02,-782.63 555.20,-777.55" rightOfWay="edgePriority"/>
    <junction id="13" type="priority" x="372.59" y="-833.71" incLanes="37975_0 37975_1" intLanes=":13_0_0 :13_1_0" shape="370.98,-833.35 372.86,-840.09 370.72,-840.72 367.85,-841.63 366.54,-841.99 364.93,-842.37 362.74,-842.78 362.13,-839.34 364.41,-838.87 366.06,-838.37 367.10,-837.83 367.52,-837.27 367.32,-836.68 366.51,-836.06 368.23,-833.01 369.11,-833.38 369.57,-833.47 370.03,-833.49 370.50,-833.45">
        <request index="0" response="00" foes="00" cont="0"/>
        <request index="1" response="00" foes="00" cont="0"/>
    </junction>
    <junction id="14" type="priority" x="360.46" y="-841.41" incLanes="38220_0" intLanes=":14_0_0" shape="361.63,-839.43 362.24,-842.87 359.28,-843.39 358.69,-839.94">
        <request index="0" response="0" foes="0" cont="0"/>
    </junction>
    <junction id="15" type="dead_end" x="291.40" y="-852.83" incLanes="38689_0" intLanes="" shape="291.12,-851.10 291.68,-854.56"/>
    <junction id="16" type="priority" x="359.51" y="-830.09" incLanes="37798_0" intLanes=":16_0_0" shape="360.41,-828.59 358.69,-831.63 358.52,-831.53">
        <request index="0" response="0" foes="0" cont="0"/>
    </junction>
    <junction id="17" type="dead_end" x="348.13" y="-812.67" incLanes="38622_0" intLanes="" shape="349.84,-812.33 346.41,-813.01"/>
    <junction id="18" type="priority" x="493.49" y="-807.43" incLanes="38075_0 38075_1" intLanes=":18_0_0 :18_0_1" shape="496.58,-803.34 498.38,-810.10 495.15,-809.93 494.00,-809.26 492.85,-808.58 491.46,-808.18 489.61,-808.34 488.76,-804.95">
        <request index="0" response="10" foes="10" cont="0"/>
        <request index="1" response="00" foes="01" cont="0"/>
    </junction>
    <junction id="19" type="priority" x="418.86" y="-825.29" incLanes="37927_0" intLanes=":19_0_0 :19_0_1" shape="422.24,-822.53 423.20,-825.90 415.48,-828.08 413.60,-821.34 416.77,-821.39 419.07,-822.49 420.44,-822.78">
        <request index="0" response="00" foes="00" cont="0"/>
        <request index="1" response="00" foes="00" cont="0"/>
    </junction>

    <connection from="37798" to="38622" fromLane="0" toLane="0" contPos="-4.00" via=":16_0_0" dir="s" state="M"/>
    <connection from="37927" to="37975" fromLane="0" toLane="0" contPos="-4.00" shape="431.20,-821.80 427.74,-822.61 423.21,-823.24 412.57,-824.11 408.55,-824.71 405.60,-825.42" via=":19_0_0" dir="s" state="M"/>
    <connection from="37927" to="37975" fromLane="0" toLane="1" contPos="-4.00" shape="431.20,-821.80 418.87,-825.29 406.53,-828.79" via=":19_0_1" dir="s" state="M"/>
    <connection from="37975" to="37798" fromLane="0" toLane="0" contPos="-4.00" shape="396.87,-827.87 388.81,-829.95 382.19,-831.30 376.53,-832.11 371.86,-832.43 368.22,-832.37 365.13,-832.02 362.60,-831.42 360.66,-830.68 359.73,-830.21" via=":13_0_0" dir="R" state="M"/>
    <connection from="37975" to="38220" fromLane="1" toLane="0" contPos="-4.00" shape="397.80,-831.25 366.60,-839.89 360.71,-841.37" via=":13_1_0" dir="s" state="M"/>
    <connection from="38075" to="37927" fromLane="0" toLane="0" contPos="-4.00" shape="505.45,-802.71 493.06,-805.74 480.67,-808.76" via=":18_0_0" dir="s" state="m"/>
    <connection from="38075" to="37927" fromLane="1" toLane="0" contPos="-4.00" shape="506.31,-806.10 502.85,-806.81 498.82,-807.25 487.17,-807.76 483.15,-808.25 480.67,-808.76" via=":18_0_1" dir="s" state="M"/>
    <connection from="38220" to="38689" fromLane="0" toLane="0" contPos="-4.00" via=":14_0_0" dir="s" state="M"/>

    <connection from=":13_0" to="37798" fromLane="0" toLane="0" dir="R" state="M"/>
    <connection from=":13_1" to="38220" fromLane="0" toLane="0" dir="s" state="M"/>
    <connection from=":14_0" to="38689" fromLane="0" toLane="0" dir="s" state="M"/>
    <connection from=":16_0" to="38622" fromLane="0" toLane="0" dir="s" state="M"/>
    <connection from=":18_0" to="37927" fromLane="0" toLane="0" dir="s" state="M"/>
    <connection from=":18_0" to="37927" fromLane="1" toLane="0" dir="s" state="M"/>
    <connection from=":19_0" to="37975" fromLane="0" toLane="0" dir="s" state="M"/>
    <connection from=":19_0" to="37975" fromLane="1" toLane="1" dir="s" state="M"/>

</net>