<!-- generated on Tue Feb  9 22:08:52 2021 by Eclipse SUMO netconvert Version 1.8.0
<configuration xmlns:xsi="http://www.w3.org/2001/XMLSchema-instance" xsi:noNamespaceSchemaLocation="http://sumo.dlr.de/xsd/netconvertConfiguration.xsd">

    <input>
        <node-files value="./converted_scenarios/scenario-factory/DEU_BadEssen-1_1_I-1-1/DEU_BadEssen-1_1_I-1-1.nod.xml"/>
        <edge-files value="./converted_scenarios/scenario-factory/DEU_BadEssen-1_1_I-1-1/DEU_BadEssen-1_1_I-1-1.edg.xml"/>
        <connection-files value="./converted_scenarios/scenario-factory/DEU_BadEssen-1_1_I-1-1/DEU_BadEssen-1_1_I-1-1.con.xml"/>
        <tllogic-files value="./converted_scenarios/scenario-factory/DEU_BadEssen-1_1_I-1-1/DEU_BadEssen-1_1_I-1-1.tll.xml"/>
        <type-files value="/home/zen/commonroad-interactive-benchmarks/install/commonroad-map-tool/crmapconverter/sumo_map/templates/DEU.typ.xml"/>
    </input>

    <output>
        <output-file value="./converted_scenarios/scenario-factory/DEU_BadEssen-1_1_I-1-1/DEU_BadEssen-1_1_I-1-1.net.xml"/>
    </output>

    <processing>
        <geometry.remove.keep-edges.explicit value="true"/>
        <geometry.avoid-overlap value="true"/>
        <offset.disable-normalization value="true"/>
    </processing>

    <junctions>
        <no-turnarounds value="true"/>
        <junctions.internal-link-detail value="20"/>
    </junctions>

    <report>
        <aggregate-warnings value="5"/>
    </report>

    <random_number>
        <seed value="1234"/>
    </random_number>

</configuration>
--><net xmlns:xsi="http://www.w3.org/2001/XMLSchema-instance" version="1.6" junctionCornerDetail="5" junctionLinkDetail="20" limitTurnSpeed="5.50" xsi:noNamespaceSchemaLocation="http://sumo.dlr.de/xsd/net_file.xsd">

    <location netOffset="0.00,0.00" convBoundary="361.48,-351.04,590.72,-136.49" origBoundary="361.48,-351.04,590.72,-136.49" projParameter="!"/>

    <type id="highway.bridleway" priority="1" speed="2.78" allow="pedestrian" oneway="1" width="2.00"/>
    <type id="highway.bus_guideway" priority="1" speed="27.78" allow="bus" oneway="1"/>
    <type id="highway.cycleway" priority="1" speed="8.33" allow="bicycle" oneway="0" width="1.00"/>
    <type id="highway.footway" priority="1" speed="2.78" allow="pedestrian" oneway="1" width="2.00"/>
    <type id="highway.ford" priority="1" speed="2.78" allow="army" oneway="0"/>
    <type id="highway.living_street" priority="2" speed="2.78" disallow="tram rail_urban rail rail_electric rail_fast ship" oneway="0"/>
    <type id="highway.motorway" priority="14" speed="39.44" allow="private emergency authority army vip passenger hov taxi bus coach delivery truck trailer motorcycle evehicle custom1 custom2" oneway="1"/>
    <type id="highway.motorway_link" priority="9" speed="22.22" allow="private emergency authority army vip passenger hov taxi bus coach delivery truck trailer motorcycle evehicle custom1 custom2" oneway="1"/>
    <type id="highway.path" priority="1" speed="2.78" allow="pedestrian bicycle" oneway="0" width="2.00"/>
    <type id="highway.pedestrian" priority="1" speed="2.78" allow="pedestrian" oneway="1" width="2.00"/>
    <type id="highway.primary" priority="12" speed="27.78" disallow="pedestrian tram rail_urban rail rail_electric rail_fast ship" oneway="0"/>
    <type id="highway.primary_link" priority="7" speed="22.22" disallow="pedestrian tram rail_urban rail rail_electric rail_fast ship" oneway="0"/>
    <type id="highway.raceway" priority="15" speed="83.33" allow="vip" oneway="0"/>
    <type id="highway.residential" priority="3" speed="13.89" disallow="pedestrian tram rail_urban rail rail_electric rail_fast ship" oneway="0"/>
    <type id="highway.secondary" priority="11" speed="27.78" disallow="pedestrian tram rail_urban rail rail_electric rail_fast ship" oneway="0"/>
    <type id="highway.secondary_link" priority="6" speed="22.22" disallow="pedestrian tram rail_urban rail rail_electric rail_fast ship" oneway="0"/>
    <type id="highway.service" priority="1" speed="5.56" allow="pedestrian delivery bicycle" oneway="0"/>
    <type id="highway.stairs" priority="1" speed="1.39" allow="pedestrian" oneway="1" width="2.00"/>
    <type id="highway.step" priority="1" speed="1.39" allow="pedestrian" oneway="1" width="2.00"/>
    <type id="highway.steps" priority="1" speed="1.39" allow="pedestrian" oneway="1" width="2.00"/>
    <type id="highway.tertiary" priority="10" speed="22.22" disallow="pedestrian tram rail_urban rail rail_electric rail_fast ship" oneway="0"/>
    <type id="highway.tertiary_link" priority="5" speed="22.22" disallow="pedestrian tram rail_urban rail rail_electric rail_fast ship" oneway="0"/>
    <type id="highway.track" priority="1" speed="5.56" allow="pedestrian motorcycle moped bicycle" oneway="0"/>
    <type id="highway.trunk" priority="13" speed="27.78" disallow="pedestrian bicycle tram rail_urban rail rail_electric rail_fast ship" oneway="0"/>
    <type id="highway.trunk_link" priority="8" speed="22.22" disallow="pedestrian bicycle tram rail_urban rail rail_electric rail_fast ship" oneway="0"/>
    <type id="highway.unclassified" priority="4" speed="13.89" disallow="pedestrian tram rail_urban rail rail_electric rail_fast ship" oneway="0"/>
    <type id="highway.unsurfaced" priority="1" speed="8.33" disallow="tram rail_urban rail rail_electric rail_fast ship" oneway="0"/>
    <type id="railway.highspeed" priority="21" speed="69.44" allow="rail_fast" oneway="1"/>
    <type id="railway.light_rail" priority="19" speed="27.78" allow="rail_urban" oneway="1"/>
    <type id="railway.preserved" priority="16" speed="27.78" allow="rail" oneway="1"/>
    <type id="railway.rail" priority="20" speed="44.44" allow="rail" oneway="1"/>
    <type id="railway.subway" priority="18" speed="27.78" allow="rail_urban" oneway="1"/>
    <type id="railway.tram" priority="17" speed="13.89" allow="tram" oneway="1"/>

    <edge id=":33_0" function="internal">
        <lane id=":33_0_0" index="0" disallow="pedestrian tram rail_urban rail rail_electric rail_fast ship" speed="11.18" length="28.30" width="3.50" shape="443.16,-202.51 442.33,-204.64 441.36,-206.66 440.23,-208.55 438.91,-210.26 437.37,-211.78 436.57,-212.41 435.70,-212.98 434.78,-213.47 433.83,-213.89 432.84,-214.22 431.82,-214.47 430.80,-214.64 428.63,-214.76 426.45,-214.60 424.28,-214.22 420.99,-213.29"/>
    </edge>
    <edge id=":33_1" function="internal">
        <lane id=":33_1_0" index="0" disallow="pedestrian tram rail_urban rail rail_electric rail_fast ship" speed="12.26" length="34.06" width="3.50" shape="443.16,-202.51 442.04,-206.31 441.57,-208.88 441.37,-211.49 441.49,-214.10 441.70,-215.40 442.00,-216.67 442.41,-217.91 442.92,-219.12 443.54,-220.27 444.25,-221.37 445.05,-222.41 446.87,-224.29 448.92,-225.91 451.13,-227.30 453.47,-228.49 455.89,-229.49"/>
    </edge>
    <edge id=":33_2" function="internal">
        <lane id=":33_2_0" index="0" disallow="pedestrian tram rail_urban rail rail_electric rail_fast ship" speed="11.27" length="28.58" width="3.50" shape="457.14,-226.22 455.02,-225.34 453.00,-224.32 451.11,-223.14 449.39,-221.79 447.87,-220.21 447.25,-219.39 446.67,-218.51 446.18,-217.58 445.76,-216.61 445.43,-215.61 445.19,-214.58 445.02,-213.56 444.91,-211.36 445.08,-209.17 445.49,-206.98 446.46,-203.67"/>
    </edge>
    <edge id=":33_3" function="internal">
        <lane id=":33_3_0" index="0" disallow="pedestrian tram rail_urban rail rail_electric rail_fast ship" speed="36.11" length="38.39" width="3.50" shape="457.14,-226.22 440.59,-220.13 420.99,-213.29"/>
    </edge>
    <edge id=":33_4" function="internal">
        <lane id=":33_4_0" index="0" disallow="pedestrian tram rail_urban rail rail_electric rail_fast ship" speed="36.11" length="38.26" width="3.50" shape="419.86,-216.61 439.40,-223.42 455.89,-229.49"/>
    </edge>
    <edge id=":33_5" function="internal">
        <lane id=":33_5_0" index="0" disallow="pedestrian tram rail_urban rail rail_electric rail_fast ship" speed="12.18" length="33.84" width="3.50" shape="419.86,-216.61 423.64,-217.67 426.20,-218.12 428.79,-218.30 431.39,-218.16 432.67,-217.95 433.93,-217.64 435.16,-217.23 436.36,-216.71 437.50,-216.09 438.59,-215.38 439.61,-214.58 441.46,-212.75 443.04,-210.69 444.38,-208.47 445.50,-206.12 446.46,-203.67"/>
    </edge>
    <edge id=":34_0" function="internal">
        <lane id=":34_0_0" index="0" disallow="pedestrian tram rail_urban rail rail_electric rail_fast ship" speed="11.00" length="28.79" width="3.50" shape="509.51,-226.85 508.29,-230.10 507.29,-232.12 506.10,-234.00 504.68,-235.71 503.92,-236.43 503.10,-237.10 502.22,-237.69 501.30,-238.19 500.33,-238.60 499.32,-238.93 498.28,-239.16 497.25,-239.31 495.03,-239.36 492.82,-239.13 490.61,-238.66 487.29,-237.60"/>
    </edge>
    <edge id=":34_1" function="internal">
        <lane id=":34_1_0" index="0" disallow="pedestrian tram rail_urban rail rail_electric rail_fast ship" speed="36.11" length="39.06" width="3.50" shape="509.51,-226.85 503.51,-245.42 497.50,-264.02"/>
    </edge>
    <edge id=":34_2" function="internal">
        <lane id=":34_2_0" index="0" disallow="pedestrian tram rail_urban rail rail_electric rail_fast ship" speed="12.28" length="34.75" width="3.50" shape="509.51,-226.85 508.55,-230.46 508.15,-232.96 507.99,-235.52 508.13,-238.11 508.63,-240.65 509.04,-241.95 509.56,-243.18 510.18,-244.36 510.89,-245.49 511.72,-246.57 513.52,-248.43 515.57,-250.03 517.75,-251.36 520.04,-252.45 523.54,-253.73"/>
    </edge>
    <edge id=":34_3" function="internal">
        <lane id=":34_3_0" index="0" disallow="pedestrian tram rail_urban rail rail_electric rail_fast ship" speed="11.28" length="29.16" width="3.50" shape="524.59,-250.40 521.54,-249.28 519.59,-248.35 517.74,-247.23 516.04,-245.90 514.54,-244.35 513.89,-243.49 513.31,-242.58 512.81,-241.62 512.40,-240.63 512.06,-239.60 511.65,-237.48 511.53,-235.33 511.67,-233.17 512.01,-231.04 512.84,-227.91"/>
    </edge>
    <edge id=":34_4" function="internal">
        <lane id=":34_4_0" index="0" disallow="pedestrian tram rail_urban rail rail_electric rail_fast ship" speed="36.11" length="39.44" width="3.50" shape="524.59,-250.40 509.78,-245.61 495.09,-240.49 487.29,-237.60"/>
    </edge>
    <edge id=":34_5" function="internal">
        <lane id=":34_5_0" index="0" disallow="pedestrian tram rail_urban rail rail_electric rail_fast ship" speed="12.31" length="34.66" width="3.50" shape="524.59,-250.40 520.85,-249.43 518.32,-249.03 515.76,-248.86 513.20,-248.98 510.68,-249.44 509.45,-249.81 508.26,-250.28 507.11,-250.85 506.01,-251.51 504.97,-252.25 503.07,-253.98 501.44,-255.96 500.06,-258.12 498.90,-260.40 497.50,-264.02"/>
    </edge>
    <edge id=":34_6" function="internal">
        <lane id=":34_6_0" index="0" disallow="pedestrian tram rail_urban rail rail_electric rail_fast ship" speed="11.32" length="29.12" width="3.50" shape="500.83,-265.11 502.05,-261.95 503.03,-260.01 504.20,-258.19 505.55,-256.55 507.13,-255.12 507.95,-254.54 508.84,-254.01 509.77,-253.55 510.73,-253.18 511.70,-252.88 513.80,-252.50 515.94,-252.40 518.11,-252.54 520.28,-252.89 523.54,-253.73"/>
    </edge>
    <edge id=":34_7" function="internal">
        <lane id=":34_7_0" index="0" disallow="pedestrian tram rail_urban rail rail_electric rail_fast ship" speed="36.11" length="39.09" width="3.50" shape="500.83,-265.11 506.84,-246.50 512.84,-227.91"/>
    </edge>
    <edge id=":34_8" function="internal">
        <lane id=":34_8_0" index="0" disallow="pedestrian tram rail_urban rail rail_electric rail_fast ship" speed="12.50" length="34.83" width="3.50" shape="500.83,-265.11 501.85,-261.35 502.27,-258.81 502.44,-256.24 502.30,-253.67 501.81,-251.14 501.42,-249.91 500.93,-248.72 500.35,-247.56 499.68,-246.46 498.10,-244.43 496.25,-242.64 494.20,-241.08 492.00,-239.74 488.51,-238.08 487.29,-237.60"/>
    </edge>
    <edge id=":34_9" function="internal">
        <lane id=":34_9_0" index="0" disallow="pedestrian tram rail_urban rail rail_electric rail_fast ship" speed="11.52" length="29.43" width="3.50" shape="486.05,-240.87 487.10,-241.28 490.18,-242.75 492.06,-243.89 493.80,-245.20 495.34,-246.69 496.66,-248.39 497.19,-249.26 497.66,-250.19 498.05,-251.16 498.37,-252.13 498.78,-254.24 498.90,-256.38 498.76,-258.56 498.40,-260.73 497.50,-264.02"/>
    </edge>
    <edge id=":34_10" function="internal">
        <lane id=":34_10_0" index="0" disallow="pedestrian tram rail_urban rail rail_electric rail_fast ship" speed="36.11" length="39.64" width="3.50" shape="486.05,-240.87 493.90,-243.78 508.66,-248.93 523.54,-253.73"/>
    </edge>
    <edge id=":34_11" function="internal">
        <lane id=":34_11_0" index="0" disallow="pedestrian tram rail_urban rail rail_electric rail_fast ship" speed="12.02" length="34.58" width="3.50" shape="486.05,-240.87 489.87,-242.10 492.48,-242.64 495.12,-242.92 497.78,-242.85 499.09,-242.67 500.39,-242.38 501.65,-241.97 502.87,-241.45 504.04,-240.81 505.15,-240.07 506.18,-239.24 507.14,-238.32 508.84,-236.27 510.26,-234.03 511.44,-231.64 512.84,-227.91"/>
    </edge>
    <edge id=":35_0" function="internal">
        <lane id=":35_0_0" index="0" disallow="pedestrian tram rail_urban rail rail_electric rail_fast ship" speed="10.88" length="29.15" width="3.50" shape="484.03,-305.11 482.75,-308.43 481.72,-310.46 480.50,-312.36 479.04,-314.06 478.26,-314.78 477.41,-315.43 476.51,-316.00 475.57,-316.48 474.58,-316.86 473.55,-317.14 472.49,-317.32 471.44,-317.42 469.20,-317.35 466.97,-316.99 464.76,-316.40 461.47,-315.14"/>
    </edge>
    <edge id=":35_1" function="internal">
        <lane id=":35_1_0" index="0" disallow="pedestrian tram rail_urban rail rail_electric rail_fast ship" speed="36.11" length="38.67" width="3.50" shape="484.03,-305.11 478.33,-323.06 473.29,-340.09 472.72,-342.09"/>
    </edge>
    <edge id=":35_2" function="internal">
        <lane id=":35_2_0" index="0" disallow="pedestrian tram rail_urban rail rail_electric rail_fast ship" speed="36.11" length="38.49" width="3.50" shape="476.09,-343.04 476.65,-341.05 481.67,-324.08 487.34,-306.23"/>
    </edge>
    <edge id=":35_3" function="internal">
        <lane id=":35_3_0" index="0" disallow="pedestrian tram rail_urban rail rail_electric rail_fast ship" speed="13.05" length="35.01" width="3.50" shape="476.09,-343.04 476.67,-340.65 477.05,-338.21 477.20,-335.71 477.07,-333.18 476.62,-330.67 475.83,-328.23 474.72,-325.93 473.31,-323.80 471.66,-321.89 469.83,-320.18 467.85,-318.67 464.74,-316.75 461.47,-315.14"/>
    </edge>
    <edge id=":35_4" function="internal">
        <lane id=":35_4_0" index="0" disallow="pedestrian tram rail_urban rail rail_electric rail_fast ship" speed="12.11" length="29.97" width="3.50" shape="460.04,-318.34 462.94,-319.76 465.68,-321.44 467.38,-322.73 468.96,-324.18 470.36,-325.80 471.55,-327.57 472.50,-329.49 473.17,-331.52 473.55,-333.63 473.67,-335.76 473.55,-337.90 473.22,-340.01 472.72,-342.09"/>
    </edge>
    <edge id=":35_5" function="internal">
        <lane id=":35_5_0" index="0" disallow="pedestrian tram rail_urban rail rail_electric rail_fast ship" speed="11.90" length="35.10" width="3.50" shape="460.04,-318.34 463.84,-319.79 466.45,-320.49 469.11,-320.92 471.81,-321.00 473.15,-320.88 474.48,-320.64 475.78,-320.28 477.04,-319.80 478.25,-319.19 479.39,-318.47 480.46,-317.65 481.45,-316.73 483.20,-314.68 484.67,-312.42 485.89,-310.01 487.34,-306.23"/>
    </edge>

    <edge id="21731" from="34" to="13" priority="3" type="highway.residential" spreadType="center" length="69.99" shape="504.67,-247.45 589.67,-276.64">
        <lane id="21731_0" index="0" disallow="pedestrian tram rail_urban rail rail_electric rail_fast ship" speed="36.11" length="69.99" width="3.50" customShape="1" shape="523.54,-253.73 536.96,-257.99 554.10,-263.81 589.67,-276.64"/>
    </edge>
    <edge id="21732" from="25" to="34" priority="3" type="highway.residential" spreadType="center" length="70.00" shape="590.72,-273.30 505.81,-244.15">
        <lane id="21732_0" index="0" disallow="pedestrian tram rail_urban rail rail_electric rail_fast ship" speed="36.11" length="70.00" width="3.50" customShape="1" shape="590.72,-273.30 555.22,-260.50 538.04,-254.66 524.58,-250.39"/>
    </edge>
    <edge id="21786" from="24" to="33" priority="3" type="highway.residential" spreadType="center" length="70.00" shape="466.40,-136.49 438.92,-214.76">
        <lane id="21786_0" index="0" disallow="pedestrian tram rail_urban rail rail_electric rail_fast ship" speed="36.11" length="70.00" width="3.50" customShape="1" shape="466.40,-136.49 443.16,-202.52"/>
    </edge>
    <edge id="21787" from="33" to="16" priority="3" type="highway.residential" spreadType="center" length="70.00" shape="442.22,-215.92 469.71,-137.64">
        <lane id="21787_0" index="0" disallow="pedestrian tram rail_urban rail rail_electric rail_fast ship" speed="36.11" length="70.00" width="3.50" customShape="1" shape="446.46,-203.67 469.71,-137.64"/>
    </edge>
    <edge id="22000" from="35" to="27" priority="3" type="highway.residential" spreadType="center" length="8.28" shape="471.88,-321.47 470.48,-350.06">
        <lane id="22000_0" index="0" disallow="pedestrian tram rail_urban rail rail_electric rail_fast ship" speed="36.11" length="8.28" width="3.50" customShape="1" shape="472.72,-342.09 471.60,-346.08 470.48,-350.06"/>
    </edge>
    <edge id="22001" from="32" to="35" priority="3" type="highway.residential" spreadType="center" length="8.33" shape="473.84,-351.04 475.37,-321.64">
        <lane id="22001_0" index="0" disallow="pedestrian tram rail_urban rail rail_electric rail_fast ship" speed="36.11" length="8.33" width="3.50" customShape="1" shape="473.84,-351.04 474.97,-347.02 476.10,-343.02"/>
    </edge>
    <edge id="22003" from="34" to="35" priority="3" type="highway.residential" spreadType="center" length="43.27" shape="503.66,-245.14 471.99,-321.02">
        <lane id="22003_0" index="0" disallow="pedestrian tram rail_urban rail rail_electric rail_fast ship" speed="36.11" length="43.27" width="3.50" customShape="1" shape="497.50,-264.02 490.76,-284.57 484.02,-305.14"/>
    </edge>
    <edge id="22004" from="35" to="34" priority="3" type="highway.residential" spreadType="center" length="43.29" shape="475.22,-322.37 506.88,-246.48">
        <lane id="22004_0" index="0" disallow="pedestrian tram rail_urban rail rail_electric rail_fast ship" speed="36.11" length="43.29" width="3.50" customShape="1" shape="487.34,-306.23 494.09,-285.66 500.83,-265.10"/>
    </edge>
    <edge id="22006" from="20" to="34" priority="3" type="highway.residential" spreadType="center" length="70.00" shape="530.71,-160.14 503.59,-245.31">
        <lane id="22006_0" index="0" disallow="pedestrian tram rail_urban rail rail_electric rail_fast ship" speed="36.11" length="70.00" width="3.50" customShape="1" shape="530.71,-160.14 509.50,-226.85"/>
    </edge>
    <edge id="22007" from="34" to="15" priority="3" type="highway.residential" spreadType="center" length="70.00" shape="506.93,-246.37 534.05,-161.20">
        <lane id="22007_0" index="0" disallow="pedestrian tram rail_urban rail rail_electric rail_fast ship" speed="36.11" length="70.00" width="3.50" customShape="1" shape="512.84,-227.91 534.05,-161.20"/>
    </edge>
    <edge id="22079" from="31" to="35" priority="3" type="highway.residential" spreadType="center" length="70.01" shape="396.98,-288.03 472.92,-323.26">
        <lane id="22079_0" index="0" disallow="pedestrian tram rail_urban rail rail_electric rail_fast ship" speed="36.11" length="70.01" width="3.50" customShape="1" shape="396.98,-288.03 409.26,-294.36 425.38,-302.49 439.45,-309.14 460.06,-318.35"/>
    </edge>
    <edge id="22080" from="35" to="28" priority="3" type="highway.residential" spreadType="center" length="70.01" shape="474.39,-320.09 398.39,-284.82">
        <lane id="22080_0" index="0" disallow="pedestrian tram rail_urban rail rail_electric rail_fast ship" speed="36.11" length="70.01" width="3.50" customShape="1" shape="461.47,-315.14 440.86,-305.93 426.83,-299.30 410.71,-291.17 398.39,-284.82"/>
    </edge>
    <edge id="22279" from="33" to="34" priority="3" type="highway.residential" spreadType="center" length="32.26" shape="439.84,-216.88 504.56,-247.41">
        <lane id="22279_0" index="0" disallow="pedestrian tram rail_urban rail rail_electric rail_fast ship" speed="36.11" length="32.26" width="3.50" customShape="1" shape="455.89,-229.49 470.98,-235.19 486.07,-240.88"/>
    </edge>
    <edge id="22280" from="34" to="33" priority="3" type="highway.residential" spreadType="center" length="32.24" shape="506.05,-244.25 441.33,-213.72">
        <lane id="22280_0" index="0" disallow="pedestrian tram rail_urban rail rail_electric rail_fast ship" speed="36.11" length="32.24" width="3.50" customShape="1" shape="487.29,-237.60 472.22,-231.91 457.12,-226.22"/>
    </edge>
    <edge id="22282" from="26" to="33" priority="3" type="highway.residential" spreadType="center" length="61.66" shape="361.48,-196.87 440.19,-217.01">
        <lane id="22282_0" index="0" disallow="pedestrian tram rail_urban rail rail_electric rail_fast ship" speed="36.11" length="61.66" width="3.50" customShape="1" shape="361.48,-196.87 390.70,-206.75 419.89,-216.62"/>
    </edge>
    <edge id="22283" from="33" to="17" priority="3" type="highway.residential" spreadType="center" length="61.60" shape="441.06,-213.62 362.63,-193.57">
        <lane id="22283_0" index="0" disallow="pedestrian tram rail_urban rail rail_electric rail_fast ship" speed="36.11" length="61.60" width="3.50" customShape="1" shape="420.99,-213.29 391.82,-203.43 362.63,-193.57"/>
    </edge>

    <junction id="13" type="dead_end" x="589.67" y="-276.64" incLanes="21731_0" intLanes="" shape="589.08,-278.29 590.27,-275.00" rightOfWay="edgePriority"/>
    <junction id="15" type="dead_end" x="534.05" y="-161.20" incLanes="22007_0" intLanes="" shape="535.71,-161.73 532.38,-160.67" rightOfWay="edgePriority"/>
    <junction id="16" type="dead_end" x="469.71" y="-137.64" incLanes="21787_0" intLanes="" shape="471.36,-138.22 468.06,-137.06" rightOfWay="edgePriority"/>
    <junction id="17" type="dead_end" x="362.63" y="-193.57" incLanes="22283_0" intLanes="" shape="363.19,-191.91 362.07,-195.22" rightOfWay="edgePriority"/>
    <junction id="20" type="dead_end" x="530.71" y="-160.14" incLanes="" intLanes="" shape="532.38,-160.67 529.04,-159.61" rightOfWay="edgePriority"/>
    <junction id="24" type="dead_end" x="466.40" y="-136.49" incLanes="" intLanes="" shape="468.05,-137.07 464.75,-135.91" rightOfWay="edgePriority"/>
    <junction id="25" type="dead_end" x="590.72" y="-273.30" incLanes="" intLanes="" shape="590.13,-274.94 591.31,-271.65" rightOfWay="edgePriority"/>
    <junction id="26" type="dead_end" x="361.48" y="-196.87" incLanes="" intLanes="" shape="362.04,-195.21 360.92,-198.53" rightOfWay="edgePriority"/>
    <junction id="27" type="dead_end" x="470.48" y="-350.06" incLanes="22000_0" intLanes="" shape="468.80,-349.59 472.16,-350.53" rightOfWay="edgePriority"/>
    <junction id="28" type="dead_end" x="398.39" y="-284.82" incLanes="22080_0" intLanes="" shape="399.19,-283.27 397.59,-286.38" rightOfWay="edgePriority"/>
    <junction id="31" type="dead_end" x="396.98" y="-288.03" incLanes="" intLanes="" shape="397.78,-286.48 396.18,-289.59" rightOfWay="edgePriority"/>
    <junction id="32" type="dead_end" x="473.84" y="-351.04" incLanes="" intLanes="" shape="472.15,-350.57 475.52,-351.52" rightOfWay="edgePriority"/>
    <junction id="33" type="priority" x="440.59" y="-215.30" incLanes="21786_0 22280_0 22282_0" intLanes=":33_0_0 :33_1_0 :33_2_0 :33_3_0 :33_4_0 :33_5_0" shape="441.51,-201.93 448.11,-204.25 446.94,-208.91 446.87,-213.06 447.92,-216.70 450.08,-219.84 453.36,-222.46 457.74,-224.58 455.27,-231.13 419.30,-218.27 421.55,-211.64 426.21,-212.75 430.34,-212.78 433.93,-211.71 436.99,-209.54 439.52,-206.28">
        <request index="0" response="001000" foes="001000" cont="0"/>
        <request index="1" response="111000" foes="111000" cont="0"/>
        <request index="2" response="000000" foes="100000" cont="0"/>
        <request index="3" response="000000" foes="100011" cont="0"/>
        <request index="4" response="000000" foes="000010" cont="0"/>
        <request index="5" response="001100" foes="001110" cont="0"/>
    </junction>
    <junction id="34" type="priority" x="505.27" y="-245.81" incLanes="22006_0 21732_0 22004_0 22279_0" intLanes=":34_0_0 :34_1_0 :34_2_0 :34_3_0 :34_4_0 :34_5_0 :34_6_0 :34_7_0 :34_8_0 :34_9_0 :34_10_0 :34_11_0" shape="507.84,-226.32 514.51,-228.44 513.44,-233.28 513.51,-237.53 514.72,-241.20 517.05,-244.29 520.52,-246.80 525.12,-248.73 523.01,-255.40 518.12,-254.32 513.82,-254.35 510.11,-255.50 506.98,-257.77 504.44,-261.15 502.49,-265.65 495.84,-263.47 496.93,-258.68 496.90,-254.40 495.73,-250.65 493.43,-247.42 490.00,-244.70 485.44,-242.51 487.91,-235.96 492.64,-237.27 496.81,-237.42 500.42,-236.39 503.46,-234.20 505.93,-230.84">
        <request index="0" response="000000000000" foes="000100010000" cont="0"/>
        <request index="1" response="000000000000" foes="111100110000" cont="0"/>
        <request index="2" response="000011000000" foes="110011110000" cont="0"/>
        <request index="3" response="000010000000" foes="100010000000" cont="0"/>
        <request index="4" response="000110000111" foes="100110000111" cont="0"/>
        <request index="5" response="011110000110" foes="011110000110" cont="0"/>
        <request index="6" response="000000000000" foes="010000000100" cont="0"/>
        <request index="7" response="000000000000" foes="110000111100" cont="0"/>
        <request index="8" response="000000000011" foes="110000110011" cont="0"/>
        <request index="9" response="000000000010" foes="000000100010" cont="0"/>
        <request index="10" response="000111000110" foes="000111100110" cont="0"/>
        <request index="11" response="000110011110" foes="000110011110" cont="0"/>
    </junction>
    <junction id="35" type="priority" x="473.62" y="-321.66" incLanes="22003_0 22001_0 22079_0" intLanes=":35_0_0 :35_1_0 :35_2_0 :35_3_0 :35_4_0 :35_5_0" shape="482.36,-304.59 489.01,-306.77 477.77,-343.52 471.04,-341.62 471.85,-336.96 471.56,-332.71 470.16,-328.89 467.66,-325.49 464.05,-322.50 459.33,-319.93 462.18,-313.55 466.92,-315.16 471.11,-315.54 474.74,-314.67 477.83,-312.55 480.37,-309.19">
        <request index="0" response="000000" foes="001000" cont="0"/>
        <request index="1" response="000000" foes="111000" cont="0"/>
        <request index="2" response="000000" foes="100000" cont="0"/>
        <request index="3" response="000011" foes="100011" cont="0"/>
        <request index="4" response="000010" foes="000010" cont="0"/>
        <request index="5" response="001110" foes="001110" cont="0"/>
    </junction>

    <connection from="21732" to="22007" fromLane="0" toLane="0" contPos="-4.00" shape="524.58,-250.39 521.54,-249.28 519.59,-248.35 517.74,-247.23 516.04,-245.90 514.54,-244.35 513.89,-243.49 513.31,-242.58 512.81,-241.62 512.40,-240.63 512.06,-239.60 511.65,-237.48 511.53,-235.33 511.67,-233.17 512.01,-231.04 512.84,-227.91" via=":34_3_0" dir="r" state="m"/>
    <connection from="21732" to="22280" fromLane="0" toLane="0" contPos="-4.00" shape="524.58,-250.39 509.78,-245.61 495.09,-240.49 487.29,-237.60" via=":34_4_0" dir="s" state="m"/>
    <connection from="21732" to="22003" fromLane="0" toLane="0" contPos="-4.00" shape="524.58,-250.39 520.85,-249.43 518.32,-249.03 515.76,-248.86 513.20,-248.98 510.68,-249.44 509.45,-249.81 508.26,-250.28 507.11,-250.85 506.01,-251.51 504.97,-252.25 503.07,-253.98 501.44,-255.96 500.06,-258.12 498.90,-260.40 497.50,-264.02" via=":34_5_0" dir="l" state="m"/>
    <connection from="21786" to="22283" fromLane="0" toLane="0" contPos="-4.00" shape="443.16,-202.52 442.33,-204.64 441.36,-206.66 440.23,-208.55 438.91,-210.26 437.37,-211.78 436.57,-212.41 435.70,-212.98 434.78,-213.47 433.83,-213.89 432.84,-214.22 431.82,-214.47 430.80,-214.64 428.63,-214.76 426.45,-214.60 424.28,-214.22 420.99,-213.29" via=":33_0_0" dir="r" state="m"/>
    <connection from="21786" to="22279" fromLane="0" toLane="0" contPos="-4.00" shape="443.16,-202.52 442.04,-206.31 441.57,-208.88 441.37,-211.49 441.49,-214.10 441.70,-215.40 442.00,-216.67 442.41,-217.91 442.92,-219.12 443.54,-220.27 444.25,-221.37 445.05,-222.41 446.87,-224.29 448.92,-225.91 451.13,-227.30 453.47,-228.49 455.89,-229.49" via=":33_1_0" dir="l" state="m"/>
    <connection from="22001" to="22004" fromLane="0" toLane="0" contPos="-4.00" shape="476.10,-343.02 476.65,-341.05 481.67,-324.08 487.34,-306.23" via=":35_2_0" dir="s" state="M"/>
    <connection from="22001" to="22080" fromLane="0" toLane="0" contPos="-4.00" shape="476.10,-343.02 476.67,-340.65 477.05,-338.21 477.20,-335.71 477.07,-333.18 476.62,-330.67 475.83,-328.23 474.72,-325.93 473.31,-323.80 471.66,-321.89 469.83,-320.18 467.85,-318.67 464.74,-316.75 461.47,-315.14" via=":35_3_0" dir="l" state="m"/>
    <connection from="22003" to="22080" fromLane="0" toLane="0" contPos="-4.00" shape="484.03,-305.11 482.75,-308.43 481.72,-310.46 480.50,-312.36 479.04,-314.06 478.26,-314.78 477.41,-315.43 476.51,-316.00 475.57,-316.48 474.58,-316.86 473.55,-317.14 472.49,-317.32 471.44,-317.42 469.20,-317.35 466.97,-316.99 464.76,-316.40 461.47,-315.14" via=":35_0_0" dir="r" state="M"/>
    <connection from="22003" to="22000" fromLane="0" toLane="0" contPos="-4.00" shape="484.03,-305.11 478.33,-323.06 473.29,-340.09 472.72,-342.09" via=":35_1_0" dir="s" state="M"/>
    <connection from="22004" to="21731" fromLane="0" toLane="0" contPos="-4.00" shape="500.83,-265.10 502.05,-261.95 503.03,-260.01 504.20,-258.19 505.55,-256.55 507.13,-255.12 507.95,-254.54 508.84,-254.01 509.77,-253.55 510.73,-253.18 511.70,-252.88 513.80,-252.50 515.94,-252.40 518.11,-252.54 520.28,-252.89 523.54,-253.73" via=":34_6_0" dir="r" state="M"/>