<routes>
	<vehicle depart="0.1" departLane="0" departPos="59.89885477364386" departSpeed="0.0" id="32" type="passenger">
		<route edges="21732 22007"/>
	</vehicle>
	<vehicle depart="0.1" departLane="0" departPos="5.444700336782302" departSpeed="1.829674" id="37" type="passenger">
		<route edges=":34_8 22280"/>
	</vehicle>
	<vehicle depart="0.1" departLane="0" departPos="42.557815043449565" departSpeed="0.77799065" id="310" type="passenger">
		<route edges="22004 22007"/>
	</vehicle>
	<vehicle depart="0.1" departLane="0" departPos="28.827758548897492" departSpeed="17.744022" id="347" type="passenger">
		<route edges=":34_9 22003 22080"/>
	</vehicle>
	<vehicle depart="0.1" departLane="0" departPos="17.539333758236992" departSpeed="10.166871" id="351" type="passenger">
		<route edges=":34_0 22280 21787"/>
	</vehicle>
	<vehicle depart="0.1" departLane="0" departPos="53.751232801206676" departSpeed="8.4914391" id="353" type="passenger">
		<route edges="22006 22003"/>
	</vehicle>
	<vehicle depart="0.1" departLane="0" departPos="34.11269788529357" departSpeed="9.1297713" id="358" type="motorcycle">
		<route edges="22006 22280"/>
	</vehicle>
	<vehicle depart="0.1" departLane="0" departPos="34.474693173490266" departSpeed="1.3387496" id="30" type="truck">
		<route edges="22004 22007"/>
	</vehicle>
	<vehicle depart="0.1" departLane="0" departPos="69.90036524742712" departSpeed="0.0" id="31" type="truck">
		<route edges="21732 22007"/>
	</vehicle>
	<vehicle depart="0.1" departLane="0" departPos="18.378766727679043" departSpeed="1.2585993" id="325" type="truck">
		<route edges="22004 22007"/>
	</vehicle>
</routes>
