<routes>
	<vehicle depart="0.1" departLane="0" departPos="66.16551971515163" departSpeed="0.048355945" id="37" type="bicycle">
		<route edges="21619 21622"/>
	</vehicle>
	<vehicle depart="0.1" departLane="0" departPos="50.92356282760012" departSpeed="0.0" id="310" type="passenger">
		<route edges="21666 21622"/>
	</vehicle>
	<vehicle depart="0.1" departLane="0" departPos="43.422348460052106" departSpeed="0.0" id="316" type="passenger">
		<route edges="21666 21622"/>
	</vehicle>
	<vehicle depart="0.1" departLane="0" departPos="65.39821930681109" departSpeed="0.83962587" id="320" type="passenger">
		<route edges="21619 21622"/>
	</vehicle>
	<vehicle depart="0.1" departLane="0" departPos="26.27744190522997" departSpeed="6.5184539" id="327" type="passenger">
		<route edges="21621 21665"/>
	</vehicle>
	<vehicle depart="0.1" departLane="0" departPos="48.566006744901195" departSpeed="1.3919233" id="331" type="passenger">
		<route edges="21619 21622"/>
	</vehicle>
	<vehicle depart="0.1" departLane="0" departPos="2.5" departSpeed="10.1812" id="333" type="passenger">
		<route edges="21621 21618"/>
	</vehicle>
	<vehicle depart="0.1" departLane="0" departPos="33.58234916563312" departSpeed="1.8169172" id="342" type="passenger">
		<route edges="21619 21622"/>
	</vehicle>
	<vehicle depart="0.1" departLane="0" departPos="53.5671959611407" departSpeed="2.1519579" id="322" type="motorcycle">
		<route edges="21619 21622"/>
	</vehicle>
	<vehicle depart="0.1" departLane="0" departPos="39.934834572271775" departSpeed="1.8275155" id="337" type="motorcycle">
		<route edges="21619 21622"/>
	</vehicle>
</routes>
