<!-- generated on 2020-12-18 15:54:04.177080 by ipykernel_launcher.py v1_2_0+5214-53edc58fcd
-->
<edges>
	<edge from="1" function="normal" id="12" length="95.70284128029805" numLanes="5" priority="1" speed="36.11111111111111" spreadType="center" to="2">
		<lane allow="moped bicycle pedestrian custom1 trailer evehicle rail_urban ship private vip custom2 authority delivery rail_electric taxi tram army hov coach motorcycle passenger rail emergency" index="0" length="95.70284128029805" shape="-31.36565,20.497799999999998 -24.74745,14.20635 -21.9098,11.442250000000001 -14.410350000000001,4.43545 -11.57265,1.6713500000000001 -7.03305,-2.57465 -3.5149,-5.819 -0.6094,-8.5131 7.2025999999999994,-15.629850000000001 7.78285,-16.1675 10.1446,-18.33915 17.4515,-24.9544 18.2509,-25.686799999999998 21.1701,-28.40305 24.232349999999997,-31.1523 29.045749999999998,-35.3215 31.99325,-37.9664 33.541650000000004,-39.30585 39.4798,-44.46985 39.48925,-44.4781" speed="36.11111111111111" width="3.451802782605053"/>
		<lane allow="moped bicycle pedestrian custom1 trailer evehicle rail_urban ship private truck vip custom2 authority delivery rail_electric taxi tram army hov coach motorcycle passenger rail emergency" index="1" length="95.70284128029805" shape="-29.002699999999997,23.030900000000003 -24.64245,18.9229 -22.34245,16.67745 -21.842750000000002,16.17775 -19.5835,13.9906 -14.069849999999999,8.8679 -12.016549999999999,6.8963 -11.2768,6.156549999999999 -9.2811,4.252 -3.2769500000000003,-1.25465 -1.1294000000000002,-3.24595 -0.37265,-3.9516 1.7533999999999998,-5.91475 7.4063,-11.043099999999999 9.611450000000001,-13.0638 10.300149999999999,-13.705950000000001 12.47825,-15.69465 18.612000000000002,-21.20895 20.6828,-23.11025 21.5051,-23.87705 23.54355,-25.7341 29.3675,-30.8532 31.40365,-32.68635 32.254,-33.479299999999995 34.25345,-35.28615 40.3664,-40.6139 41.7646,-41.8711" speed="36.11111111111111" width="3.250550685653123"/>
		<lane allow="moped bicycle pedestrian custom1 trailer evehicle rail_urban ship private truck vip custom2 authority delivery rail_electric taxi tram army hov coach motorcycle passenger bus rail emergency" index="2" length="95.70284128029805" shape="-26.712600000000002,25.48585 -25.42385,24.2421 -22.34075,21.3438 -19.53435,18.61085 -17.66485,16.84605 -14.8191,14.09105 -11.8316,11.309000000000001 -9.0167,8.603000000000002 -6.76195,6.52945 -3.8978,3.7960000000000003 -1.0345,1.20345 1.8723999999999998,-1.4596500000000001 4.483,-3.8287 7.3941,-6.51665 9.6401,-8.5628 12.543849999999999,-11.23415 15.27125,-13.6915 18.19695,-16.36285 20.842550000000003,-18.731949999999998 23.74275,-21.384050000000002 26.3066,-23.6756 29.23515,-26.3435 31.498649999999998,-28.310049999999997 34.42645,-30.91175 37.1893,-33.29675 40.128,-35.9525 42.567499999999995,-38.095349999999996 43.959,-39.35685" speed="36.11111111111111" width="3.1897109727998862"/>
		<lane allow="moped bicycle pedestrian custom1 trailer evehicle rail_urban ship private vip custom2 authority delivery rail_electric taxi tram army hov coach motorcycle passenger rail emergency" index="3" length="95.70284128029805" shape="-24.4259,27.937150000000003 -23.11825,26.63075 -22.8746,26.394199999999998 -15.3642,19.328 -15.20015,19.16985 -12.505749999999999,16.47825 -12.3033,16.2853 -4.48095,8.99765 -4.468450000000001,8.98515 -1.67865,6.2925 -1.4989999999999999,6.124700000000001 6.49195,-1.1274 6.7547999999999995,-1.36865 9.370049999999999,-3.8074 9.63335,-4.0509 17.34015,-11.08335 17.50995,-11.239799999999999 20.22265,-13.769400000000001 20.3559,-13.89095 28.36605,-21.058799999999998 28.54315,-21.22115 31.24155,-23.737450000000003 31.363149999999997,-23.8473 39.40035,-30.76905 39.48465,-30.8452 42.33865,-33.50435 42.45685,-33.610600000000005 46.1761,-36.8166" speed="36.11111111111111" width="3.2118758662189943"/>
		<lane allow="moped bicycle pedestrian custom1 trailer evehicle rail_urban ship private truck vip custom2 authority delivery rail_electric taxi tram army hov coach motorcycle passenger rail emergency" index="4" length="95.70284128029805" shape="-22.08685,30.4446 -20.48555,28.84495 -20.24445,28.61355 -12.749749999999999,21.622149999999998 -12.5533,21.43235 -9.90005,18.78215 -9.6628,18.55365 -2.0341,11.39805 -1.7488,11.13125 0.8596999999999999,8.69875 1.1626999999999998,8.419 8.80815,1.4243999999999999 9.0989,1.1559000000000001 11.7196,-1.28785 12.0208,-1.5663 19.6441,-8.5588 19.9346,-8.8275 22.5537,-11.26965 22.874650000000003,-11.56185 30.6525,-18.503149999999998 30.94485,-18.769849999999998 33.581900000000005,-21.22775 33.91825,-21.53015 41.768699999999995,-28.38935 42.0624,-28.654449999999997 44.713499999999996,-31.12425 45.07625,-31.443 48.4116,-34.255250000000004" speed="36.11111111111111" width="3.479396558312952"/>
	</edge>
	<edge from="2" function="normal" id="8" length="66.33553825783191" numLanes="6" priority="1" speed="36.11111111111111" spreadType="center" to="3">
		<lane allow="moped bicycle pedestrian custom1 trailer evehicle rail_urban ship private truck vip custom2 authority delivery rail_electric taxi tram army hov coach motorcycle passenger bus rail emergency" index="0" length="66.33553825783191" shape="37.022999999999996,-47.303799999999995 39.18725,-49.1588 39.910650000000004,-49.80465 42.5805,-52.11865 43.30385,-52.7645 46.00595,-55.1428 46.729299999999995,-55.7887 49.4467,-58.1773 50.17005,-58.82315 52.8399,-61.1372 53.5633,-61.78305 54.29025,-62.414249999999996 56.29375,-64.15665 57.01665,-64.8031 59.7001,-67.16385 60.423,-67.8103 63.17515,-70.2087 63.89805,-70.85515000000001 66.46975,-73.08109999999999 67.1926,-73.72755000000001 69.90944999999999,-76.0591 70.63235,-76.7055 73.47625,-79.2165 74.19915,-79.86295000000001 76.85820000000001,-82.21594999999999 77.58109999999999,-82.86240000000001 80.39415,-85.2841 81.11705,-85.9305 83.74735,-88.23249999999999 84.4702,-88.87895 86.91635,-91.01855" speed="36.11111111111111" width="3.73934780409633"/>
		<lane allow="moped bicycle pedestrian custom1 trailer evehicle rail_urban ship private vip custom2 authority delivery rail_electric taxi tram army hov coach motorcycle passenger rail emergency" index="1" length="66.33553825783191" shape="39.48925,-44.4781 40.0951,-44.99495 41.675650000000005,-46.39795 42.38855,-47.0555 43.027699999999996,-47.62595 44.87245,-49.15205 45.52705,-49.7068 45.64,-49.7979 46.232299999999995,-50.29675 46.41374999999999,-50.4618 48.50705,-52.3555 48.528549999999996,-52.375249999999994 49.22685,-53.019499999999994 49.3198,-53.1031 51.8832,-55.35705 52.564099999999996,-55.96495 52.6336,-56.0252 55.29185,-58.3314 55.957,-58.925399999999996 56.02045,-58.9807 56.491550000000004,-59.3911 58.758849999999995,-61.4269 59.398399999999995,-62.01675 59.42265,-62.03815 65.55760000000001,-67.31620000000001 66.23225,-67.90639999999999 66.3304,-67.98984999999999 67.2384,-68.76284999999999 67.3031,-68.8228 68.9714,-70.31235000000001 69.68424999999999,-70.96995 70.20075,-71.42394999999999 72.3503,-73.2579 73.00534999999999,-73.84015 73.05715000000001,-73.88550000000001 75.88945,-76.37225000000001 76.57985,-76.9855 76.62950000000001,-77.0289 78.24119999999999,-78.4473 79.3494,-79.4594 80.06235000000001,-80.11699999999999 81.21575,-81.1385 82.81135,-82.49785 83.45555,-83.06784999999999 83.52510000000001,-83.12805 86.1539,-85.40639999999999 86.82239999999999,-85.99745 86.8938,-86.0592 89.2151,-88.07 89.23615000000001,-88.08840000000001 89.37015,-88.205" speed="36.11111111111111" width="3.504353214217994"/>
		<lane allow="moped bicycle pedestrian custom1 trailer evehicle rail_urban ship private vip custom2 authority delivery rail_electric taxi tram army hov coach motorcycle passenger rail emergency" index="2" length="66.33553825783191" shape="41.7646,-41.8711 42.370549999999994,-42.4172 43.252849999999995,-43.239999999999995 45.12895,-44.90795 45.291799999999995,-45.0409 48.66345,-47.8112 51.18770000000001,-50.0493 51.2946,-50.14795 51.6643,-50.4885 51.72065,-50.53825 54.287549999999996,-52.85595 58.746849999999995,-56.704499999999996 61.616550000000004,-59.26175 61.7345,-59.362449999999995 62.3723,-59.906800000000004 62.44865,-59.977199999999996 65.34585,-62.541 69.53075,-66.09549999999999 72.37555,-68.6394 72.47295,-68.72355 73.4784,-69.59309999999999 76.42875000000001,-72.2444 80.5368,-75.76755 83.39625000000001,-78.3118 83.5082,-78.40765 84.62185,-79.3625 84.68095,-79.41720000000001 87.5786,-82.0077 91.54429999999999,-85.4774 91.6601,-85.5792" speed="36.11111111111111" width="3.2179854148208946"/>
		<lane allow="moped bicycle pedestrian custom1 trailer evehicle rail_urban ship private truck vip custom2 authority delivery rail_electric taxi tram army hov coach motorcycle passenger rail emergency" index="3" length="66.33553825783191" shape="43.959,-39.35685 45.4297,-40.689899999999994 45.52995,-40.77615 48.40625,-43.2608 51.3684,-45.890299999999996 53.50375,-47.694900000000004 56.3404,-50.2141 56.45895,-50.314899999999994 59.47175,-52.876549999999995 62.42965,-55.51325 64.5716,-57.362899999999996 67.4328,-59.9477 67.5236,-60.02635 70.58709999999999,-62.68265 73.54015,-65.32329999999999 75.58205000000001,-67.04605 78.44485,-69.56405 78.57695,-69.67495 81.71265,-72.3134 84.67285000000001,-74.94805 86.83744999999999,-76.80845 89.69399999999999,-79.381 89.765,-79.4434 92.94485,-82.2453 93.84895,-83.06944999999999" speed="36.11111111111111" width="3.1175293182262114"/>
		<lane allow="moped bicycle pedestrian custom1 trailer evehicle rail_urban ship private vip custom2 authority delivery rail_electric taxi tram army hov coach motorcycle passenger rail emergency" index="4" length="66.33553825783191" shape="46.1761,-36.8166 50.484849999999994,-40.530649999999994 50.677350000000004,-40.706050000000005 53.34935,-43.1977 53.4105,-43.25475 53.5371,-43.36265 61.6773,-50.3023 61.846199999999996,-50.45515 64.62815,-53.0456 64.78955,-53.19035 72.7986,-60.0674 72.87174999999999,-60.1347 75.65575,-62.7308 83.90504999999999,-69.77940000000001 84.02590000000001,-69.8897 86.83985,-72.5118 86.96979999999999,-72.62755 95.12045,-79.6259 95.23745,-79.73265 96.0766,-80.5152" speed="36.11111111111111" width="3.265483218453288"/>
		<lane allow="moped bicycle pedestrian custom1 trailer evehicle rail_urban ship private vip custom2 authority delivery rail_electric taxi tram army hov coach motorcycle passenger rail emergency" index="5" length="66.33553825783191" shape="48.4116,-34.255250000000004 52.74465,-37.9088 52.97655,-38.111549999999994 53.10155,-38.2278 55.7128,-40.6572 56.065200000000004,-40.97065 64.13550000000001,-47.89875 64.3777,-48.1135 64.48089999999999,-48.2096 67.09125,-50.63995 67.45665,-50.96095 75.09365,-57.395250000000004 75.32515000000001,-57.5975 75.45105,-57.714600000000004 78.06235000000001,-60.143950000000004 78.39805,-60.4467 86.29485,-67.382 86.55,-67.61185 86.62535,-67.68205 89.2348,-70.11335 89.5946,-70.43075 97.36165,-77.0153 97.59665000000001,-77.22165 97.71504999999999,-77.33189999999999 98.34309999999999,-77.91635" speed="36.11111111111111" width="3.4791584298505245"/>
	</edge>
	<edge from="4" function="normal" id="9" length="96.54466301378186" numLanes="1" priority="1" speed="36.11111111111111" spreadType="center" to="2">
		<lane allow="moped bicycle pedestrian custom1 trailer evehicle rail_urban ship private truck vip custom2 authority delivery rail_electric taxi tram army hov coach motorcycle passenger bus rail emergency" index="0" length="96.54466301378186" shape="-38.03725,13.346 -35.96745,12.01155 -34.9032,11.27645 -29.21755,7.1296 -27.8457,6.08455 -19.8856,-0.019100000000000006 -13.44885,-5.1562 -8.3207,-9.33015 -0.5991,-15.6159 1.0391000000000001,-16.96955 9.597850000000001,-24.0786 21.4345,-33.856849999999994 21.7729,-34.136700000000005 27.62975,-39.118449999999996 31.0812,-42.11605 37.022999999999996,-47.303799999999995" speed="36.11111111111111" width="3.640006708785027"/>
	</edge>
</edges>
