<routes>
	<vehicle depart="0.1" departLane="0" departPos="15.310470307601632" departSpeed="0.0" id="340" type="bicycle">
		<route edges="45059 44770"/>
	</vehicle>
	<vehicle depart="0.1" departLane="0" departPos="69.53777945448778" departSpeed="0.0" id="31" type="passenger">
		<route edges="45059 44770"/>
	</vehicle>
	<vehicle depart="0.1" departLane="0" departPos="48.74366733152149" departSpeed="0.0" id="314" type="passenger">
		<route edges="45059 44770"/>
	</vehicle>
	<vehicle depart="0.1" departLane="0" departPos="62.88720198426382" departSpeed="0.0" id="319" type="passenger">
		<route edges="45059 44770"/>
	</vehicle>
	<vehicle depart="0.1" departLane="0" departPos="56.14200556253946" departSpeed="0.0" id="322" type="passenger">
		<route edges="45059 44770"/>
	</vehicle>
	<vehicle depart="0.1" departLane="0" departPos="21.34266987530724" departSpeed="0.0" id="336" type="passenger">
		<route edges="45059 44770"/>
	</vehicle>
	<vehicle depart="0.1" departLane="0" departPos="10.84134167055319" departSpeed="1.406618e-05" id="348" type="passenger">
		<route edges="45059 44770"/>
	</vehicle>
	<vehicle depart="0.1" departLane="0" departPos="25.53728263003207" departSpeed="12.435137" id="350" type="passenger">
		<route edges=":36_5 45060"/>
	</vehicle>
	<vehicle depart="0.1" departLane="0" departPos="49.02699235368099" departSpeed="14.333853" id="353" type="passenger">
		<route edges="44771 44774"/>
	</vehicle>
	<vehicle depart="0.1" departLane="0" departPos="26.343490009708038" departSpeed="0.0" id="330" type="motorcycle">
		<route edges="45059 44770"/>
	</vehicle>
</routes>
