<routes>
	<vehicle depart="0.1" departLane="0" departPos="71.74119424119823" departSpeed="5.8452049" id="1" type="passenger">
		<route edges="50201 50213 50197"/>
	</vehicle>
	<vehicle depart="0.1" departLane="0" departPos="118.93835503276375" departSpeed="0.68263859" id="2" type="passenger">
		<route edges="50195 50211 50199"/>
	</vehicle>
	<vehicle depart="0.1" departLane="0" departPos="142.13169632966523" departSpeed="2.7345865" id="4" type="passenger">
		<route edges="50205 50217 50199"/>
	</vehicle>
	<vehicle depart="0.1" departLane="0" departPos="150.1317031854339" departSpeed="3.2251254" id="5" type="passenger">
		<route edges="50205 50217 50199"/>
	</vehicle>
	<vehicle depart="0.1" departLane="0" departPos="71.74119424119823" departSpeed="1.7734724" id="7" type="passenger">
		<route edges="50201 50213 50197"/>
	</vehicle>
</routes>
