<routes>
	<vehicle depart="0.1" departLane="0" departPos="8.949055664068105" departSpeed="0.2391813" id="35" type="passenger">
		<route edges=":69_9 21598"/>
	</vehicle>
	<vehicle depart="0.1" departLane="0" departPos="33.91982120773821" departSpeed="0.1559183" id="315" type="passenger">
		<route edges="21187 21594"/>
	</vehicle>
	<vehicle depart="0.1" departLane="0" departPos="51.28288449110898" departSpeed="1.0676563" id="323" type="passenger">
		<route edges="21187 21594"/>
	</vehicle>
	<vehicle depart="0.1" departLane="0" departPos="40.92290410493821" departSpeed="0.82269266" id="337" type="passenger">
		<route edges="21187 21594"/>
	</vehicle>
	<vehicle depart="0.1" departLane="0" departPos="4.744969255016024" departSpeed="3.756709" id="380" type="passenger">
		<route edges="21594 21485"/>
	</vehicle>
	<vehicle depart="0.1" departLane="0" departPos="25.306784049781722" departSpeed="3.631961" id="382" type="passenger">
		<route edges=":69_3 21594 21485"/>
	</vehicle>
	<vehicle depart="0.1" departLane="0" departPos="60.080050699693096" departSpeed="6.9263559" id="386" type="passenger">
		<route edges="21185 21598"/>
	</vehicle>
	<vehicle depart="0.1" departLane="0" departPos="42.5459159488599" departSpeed="8.6587987" id="390" type="passenger">
		<route edges="21185 21594"/>
	</vehicle>
	<vehicle depart="0.1" departLane="0" departPos="44.444197722554314" departSpeed="0.0" id="30" type="truck">
		<route edges="21595 21184"/>
	</vehicle>
	<vehicle depart="0.1" departLane="0" departPos="11.085288950707548" departSpeed="12.436328" id="384" type="truck">
		<route edges=":69_4 21188"/>
	</vehicle>
</routes>
