<routes>
	<vehicle depart="0.1" departLane="0" departPos="39.67205185415597" departSpeed="7.0587638" id="37" type="bicycle">
		<route edges="10101 10850"/>
	</vehicle>
	<vehicle depart="0.1" departLane="1" departPos="5.153975613789927" departSpeed="8.6228153" id="317" type="bicycle">
		<route edges="10101 10851"/>
	</vehicle>
	<vehicle depart="0.1" departLane="2" departPos="19.74062380408752" departSpeed="12.85781" id="337" type="bus">
		<route edges=":7_0 10101 10851"/>
	</vehicle>
	<vehicle depart="0.1" departLane="0" departPos="12.743657814915537" departSpeed="13.261795" id="335" type="passenger">
		<route edges="10101 10850"/>
	</vehicle>
	<vehicle depart="0.1" departLane="3" departPos="23.70740841073619" departSpeed="14.864727" id="338" type="passenger">
		<route edges=":7_0 10101 10851"/>
	</vehicle>
	<vehicle depart="0.1" departLane="3" departPos="2.5" departSpeed="14.502701" id="339" type="passenger">
		<route edges=":7_0 10101 10851"/>
	</vehicle>
</routes>
