<routes>
	<vehicle depart="0.1" departLane="0" departPos="47.56836469898549" departSpeed="0.0" id="372" type="bus">
		<route edges="4990 4996"/>
	</vehicle>
	<vehicle depart="0.1" departLane="0" departPos="22.608035149456118" departSpeed="1.7147308" id="38" type="passenger">
		<route edges="4995 4342"/>
	</vehicle>
	<vehicle depart="0.1" departLane="0" departPos="12.983486425383646" departSpeed="0.67739107" id="319" type="passenger">
		<route edges="4995 4342"/>
	</vehicle>
	<vehicle depart="0.1" departLane="0" departPos="6.549578095815537" departSpeed="0.58545167" id="357" type="passenger">
		<route edges="4995 4342"/>
	</vehicle>
	<vehicle depart="0.1" departLane="0" departPos="12.38913504454603" departSpeed="0.6258159" id="361" type="passenger">
		<route edges=":78_4 4342"/>
	</vehicle>
</routes>
