<!-- generated on 2020-12-18 17:02:24.060656 by ipykernel_launcher.py v1_2_0+5214-53edc58fcd
-->
<connections>
	<connection contPos="-4.0" from="1016" fromLane="0" keepClear="true" to="1034" toLane="0"/>
	<connection contPos="-4.0" from="1016" fromLane="0" keepClear="true" to="1023" toLane="0"/>
	<connection contPos="-4.0" from="1016" fromLane="0" keepClear="true" to="1025" toLane="0"/>
	<connection contPos="-4.0" from="1017" fromLane="0" keepClear="true" to="1027" toLane="0"/>
	<connection contPos="-4.0" from="1017" fromLane="0" keepClear="true" to="1024" toLane="0"/>
	<connection contPos="-4.0" from="1017" fromLane="0" keepClear="true" to="1032" toLane="0"/>
	<connection contPos="-4.0" from="1019" fromLane="0" keepClear="true" to="1028" toLane="0"/>
	<connection contPos="-4.0" from="1019" fromLane="0" keepClear="true" to="1033" toLane="0"/>
	<connection contPos="-4.0" from="1019" fromLane="0" keepClear="true" to="1031" toLane="0"/>
	<connection contPos="-4.0" from="1022" fromLane="0" keepClear="true" to="1029" toLane="0"/>
	<connection contPos="-4.0" from="1022" fromLane="0" keepClear="true" to="1030" toLane="0"/>
	<connection contPos="-4.0" from="1022" fromLane="0" keepClear="true" to="1026" toLane="0"/>
	<connection contPos="-4.0" from="1023" fromLane="0" keepClear="true" to="1021" toLane="0"/>
	<connection contPos="-4.0" from="1024" fromLane="0" keepClear="true" to="1021" toLane="0"/>
	<connection contPos="-4.0" from="1025" fromLane="0" keepClear="true" to="1018" toLane="0"/>
	<connection contPos="-4.0" from="1026" fromLane="0" keepClear="true" to="1015" toLane="0"/>
	<connection contPos="-4.0" from="1027" fromLane="0" keepClear="true" to="1020" toLane="0"/>
	<connection contPos="-4.0" from="1028" fromLane="0" keepClear="true" to="1018" toLane="0"/>
	<connection contPos="-4.0" from="1029" fromLane="0" keepClear="true" to="1020" toLane="0"/>
	<connection contPos="-4.0" from="1030" fromLane="0" keepClear="true" to="1018" toLane="0"/>
	<connection contPos="-4.0" from="1031" fromLane="0" keepClear="true" to="1021" toLane="0"/>
	<connection contPos="-4.0" from="1032" fromLane="0" keepClear="true" to="1015" toLane="0"/>
	<connection contPos="-4.0" from="1033" fromLane="0" keepClear="true" to="1015" toLane="0"/>
	<connection contPos="-4.0" from="1034" fromLane="0" keepClear="true" to="1020" toLane="0"/>
</connections>
