<?xml version="1.0" encoding="UTF-8"?>

<!-- generated on Fri Dec 18 17:02:24 2020 by Eclipse SUMO netconvert Version 1.8.0
<configuration xmlns:xsi="http://www.w3.org/2001/XMLSchema-instance" xsi:noNamespaceSchemaLocation="http://sumo.dlr.de/xsd/netconvertConfiguration.xsd">

    <input>
        <node-files value="./converted_scenarios/SUMO/DEU_Muc-24_1_I-1-1/nodes.net.xml"/>
        <edge-files value="./converted_scenarios/SUMO/DEU_Muc-24_1_I-1-1/edges.net.xml"/>
        <connection-files value="./converted_scenarios/SUMO/DEU_Muc-24_1_I-1-1/_connections.net.xml"/>
        <tllogic-files value="./converted_scenarios/SUMO/DEU_Muc-24_1_I-1-1/_tll.net.xml"/>
    </input>

    <output>
        <output-file value="./converted_scenarios/SUMO/DEU_Muc-24_1_I-1-1/DEU_Muc-24_1_I-1-1.net.xml"/>
    </output>

    <processing>
        <plain.extend-edge-shape value="true"/>
        <geometry.remove.keep-edges.explicit value="true"/>
        <geometry.avoid-overlap value="true"/>
        <offset.disable-normalization value="true"/>
    </processing>

    <junctions>
        <no-turnarounds value="true"/>
        <junctions.internal-link-detail value="20"/>
    </junctions>

    <report>
        <aggregate-warnings value="5"/>
    </report>

    <random_number>
        <seed value="1234"/>
    </random_number>

</configuration>
-->

<net version="1.6" junctionCornerDetail="5" junctionLinkDetail="20" limitTurnSpeed="5.50" xmlns:xsi="http://www.w3.org/2001/XMLSchema-instance" xsi:noNamespaceSchemaLocation="http://sumo.dlr.de/xsd/net_file.xsd">

    <location netOffset="0.00,0.00" convBoundary="-86.01,-102.38,329.53,88.31" origBoundary="-86.01,-102.38,329.53,88.31" projParameter="!"/>

    <edge id=":1_0" function="internal">
        <lane id=":1_0_0" index="0" disallow="bus truck rail_fast" speed="23.50" length="7.56" width="2.50" shape="13.85,74.42 13.30,74.31 12.80,74.21 12.35,74.13 11.94,74.05 11.56,73.99 11.21,73.94 10.88,73.90 10.57,73.86 10.27,73.84 9.97,73.83 9.66,73.83 9.35,73.84 9.02,73.86 8.67,73.89 8.29,73.93 7.88,73.98 7.42,74.04 6.92,74.11 6.36,74.20"/>
    </edge>
    <edge id=":1_1" function="internal">
        <lane id=":1_1_0" index="0" disallow="bus truck rail_fast" speed="36.11" length="9.05" width="2.50" shape="15.33,72.97 6.36,74.20"/>
    </edge>
    <edge id=":1_2" function="internal">
        <lane id=":1_2_0" index="0" disallow="bus truck rail_fast" speed="12.53" length="8.49" width="2.50" shape="14.00,70.99 13.53,71.39 13.10,71.75 12.70,72.07 12.33,72.36 11.98,72.61 11.65,72.82 11.33,73.01 11.02,73.18 10.70,73.32 10.39,73.44 10.06,73.55 9.71,73.64 9.35,73.72 8.95,73.80 8.52,73.87 8.06,73.95 7.54,74.02 6.98,74.11 6.36,74.20"/>
    </edge>
    <edge id=":10_0" function="internal">
        <lane id=":10_0_0" index="0" disallow="bus truck rail_fast" speed="5.97" length="8.33" width="2.50" shape="26.63,71.52 25.82,71.62 25.07,71.73 24.35,71.83 23.68,71.95 23.06,72.06 22.49,72.18 21.96,72.30 21.47,72.43 21.03,72.56 20.64,72.70 20.29,72.84 19.99,72.98 19.73,73.13 19.52,73.28 19.35,73.44 19.24,73.60 19.16,73.76 19.13,73.93 19.15,74.10"/>
    </edge>
    <edge id=":10_1" function="internal">
        <lane id=":10_1_0" index="0" disallow="bus truck rail_fast" speed="36.11" length="11.19" width="2.50" shape="26.63,71.52 15.53,72.94"/>
    </edge>
    <edge id=":10_2" function="internal">
        <lane id=":10_2_0" index="0" disallow="bus truck rail_fast" speed="9.44" length="10.86" width="2.50" shape="26.63,71.52 25.73,71.62 24.86,71.71 24.04,71.77 23.25,71.82 22.50,71.86 21.79,71.87 21.12,71.87 20.49,71.86 19.89,71.82 19.34,71.77 18.82,71.71 18.34,71.62 17.90,71.52 17.50,71.40 17.14,71.27 16.82,71.12 16.53,70.95 16.29,70.76 16.08,70.56"/>
    </edge>
    <edge id=":11_0" function="internal">
        <lane id=":11_0_0" index="0" disallow="bus truck rail_fast" speed="28.58" length="7.46" width="2.50" shape="18.28,68.76 18.83,68.87 19.32,68.96 19.77,69.05 20.17,69.13 20.54,69.19 20.89,69.25 21.21,69.30 21.52,69.33 21.82,69.36 22.11,69.38 22.41,69.39 22.72,69.38 23.04,69.37 23.39,69.35 23.77,69.32 24.18,69.29 24.63,69.24 25.13,69.18 25.68,69.12"/>
    </edge>
    <edge id=":11_1" function="internal">
        <lane id=":11_1_0" index="0" disallow="bus truck rail_fast" speed="36.11" length="9.11" width="2.50" shape="16.64,70.28 25.68,69.12"/>
    </edge>
    <edge id=":11_2" function="internal">
        <lane id=":11_2_0" index="0" disallow="bus truck rail_fast" speed="11.72" length="8.72" width="2.50" shape="17.82,72.26 18.29,71.83 18.73,71.46 19.13,71.12 19.51,70.83 19.86,70.58 20.20,70.36 20.53,70.17 20.86,70.00 21.18,69.87 21.51,69.75 21.86,69.65 22.22,69.57 22.60,69.50 23.01,69.43 23.45,69.37 23.94,69.32 24.47,69.26 25.05,69.19 25.68,69.12"/>
    </edge>
    <edge id=":13_0" function="internal">
        <lane id=":13_0_0" index="0" disallow="bus truck rail_fast" speed="36.11" length="6.86" width="2.50" shape="19.20,74.29 19.31,74.79 19.42,75.24 19.51,75.65 19.59,76.02 19.67,76.36 19.75,76.67 19.82,76.96 19.89,77.23 19.96,77.50 20.03,77.76 20.11,78.02 20.20,78.29 20.29,78.58 20.40,78.88 20.52,79.20 20.65,79.56 20.80,79.95 20.97,80.38 21.15,80.86"/>
    </edge>
    <edge id=":13_1" function="internal">
        <lane id=":13_1_0" index="0" disallow="rail_fast" speed="36.11" length="11.06" width="2.50" shape="16.95,70.62 21.15,80.86"/>
    </edge>
    <edge id=":13_2" function="internal">
        <lane id=":13_2_0" index="0" disallow="bus truck rail_fast" speed="17.10" length="9.88" width="2.50" shape="15.78,72.75 16.32,73.24 16.80,73.70 17.23,74.11 17.62,74.50 17.96,74.86 18.27,75.20 18.55,75.53 18.80,75.85 19.03,76.18 19.24,76.51 19.44,76.85 19.64,77.22 19.82,77.61 20.01,78.03 20.21,78.50 20.42,79.00 20.64,79.56 20.89,80.18 21.15,80.86"/>
    </edge>
    <edge id=":16_0" function="internal">
        <lane id=":16_0_0" index="0" disallow="bus truck rail_fast" speed="8.19" length="8.59" width="2.50" shape="18.69,81.42 18.42,80.74 18.15,80.10 17.88,79.50 17.62,78.93 17.36,78.39 17.10,77.88 16.85,77.42 16.60,76.98 16.35,76.58 16.11,76.21 15.87,75.88 15.63,75.58 15.39,75.32 15.16,75.09 14.93,74.89 14.71,74.73 14.48,74.60 14.26,74.51 14.05,74.45"/>
    </edge>
    <edge id=":16_1" function="internal">
        <lane id=":16_1_0" index="0" disallow="rail_fast" speed="36.11" length="9.49" width="2.50" shape="18.69,81.42 15.08,72.64"/>
    </edge>
    <edge id=":16_2" function="internal">
        <lane id=":16_2_0" index="0" disallow="bus truck rail_fast" speed="7.64" length="9.47" width="2.50" shape="18.69,81.42 18.40,80.66 18.13,79.94 17.89,79.25 17.68,78.58 17.50,77.95 17.34,77.35 17.20,76.78 17.10,76.25 17.02,75.74 16.96,75.27 16.94,74.82 16.94,74.41 16.96,74.03 17.01,73.68 17.09,73.36 17.20,73.07 17.33,72.81 17.49,72.59 17.67,72.39"/>
    </edge>
    <edge id=":4_0" function="internal">
        <lane id=":4_0_0" index="0" disallow="bus truck rail_fast" speed="5.98" length="8.10" width="2.50" shape="5.61,71.78 6.39,71.66 7.12,71.54 7.81,71.41 8.46,71.29 9.06,71.16 9.62,71.03 10.13,70.89 10.60,70.76 11.03,70.62 11.41,70.48 11.75,70.34 12.04,70.19 12.29,70.05 12.50,69.90 12.66,69.75 12.78,69.60 12.86,69.44 12.89,69.28 12.87,69.12"/>
    </edge>
    <edge id=":4_1" function="internal">
        <lane id=":4_1_0" index="0" disallow="bus truck rail_fast" speed="36.11" length="10.94" width="2.50" shape="5.61,71.78 16.44,70.30"/>
    </edge>
    <edge id=":4_2" function="internal">
        <lane id=":4_2_0" index="0" disallow="bus truck rail_fast" speed="9.66" length="10.31" width="2.50" shape="5.61,71.78 6.42,71.67 7.20,71.57 7.95,71.49 8.67,71.43 9.35,71.39 10.00,71.36 10.63,71.35 11.22,71.36 11.78,71.38 12.30,71.43 12.80,71.49 13.27,71.57 13.70,71.66 14.10,71.78 14.47,71.91 14.81,72.06 15.12,72.23 15.39,72.41 15.64,72.61"/>
    </edge>
    <edge id=":6_0" function="internal">
        <lane id=":6_0_0" index="0" disallow="bus truck rail_fast" speed="8.21" length="8.51" width="2.50" shape="13.37,61.92 13.64,62.57 13.91,63.19 14.17,63.78 14.43,64.34 14.69,64.86 14.95,65.35 15.20,65.81 15.46,66.23 15.71,66.62 15.95,66.98 16.20,67.31 16.44,67.60 16.69,67.86 16.92,68.08 17.16,68.28 17.40,68.44 17.63,68.56 17.86,68.66 18.09,68.72"/>
    </edge>
    <edge id=":6_1" function="internal">
        <lane id=":6_1_0" index="0" disallow="bus truck rail_fast" speed="36.11" length="9.21" width="2.50" shape="13.37,61.92 16.88,70.44"/>
    </edge>
    <edge id=":6_2" function="internal">
        <lane id=":6_2_0" index="0" disallow="bus truck rail_fast" speed="7.51" length="9.42" width="2.50" shape="13.37,61.92 13.66,62.65 13.92,63.36 14.15,64.04 14.36,64.69 14.54,65.30 14.69,65.89 14.81,66.45 14.91,66.98 14.98,67.48 15.02,67.95 15.03,68.39 15.02,68.80 14.98,69.18 14.91,69.54 14.81,69.86 14.69,70.15 14.54,70.42 14.36,70.65 14.16,70.86"/>
    </edge>
    <edge id=":7_0" function="internal">
        <lane id=":7_0_0" index="0" disallow="bus truck rail_fast" speed="36.11" length="10.36" width="2.50" shape="15.01,72.46 11.06,62.87"/>
    </edge>
    <edge id=":7_1" function="internal">
        <lane id=":7_1_0" index="0" disallow="bus truck rail_fast" speed="24.21" length="9.07" width="2.50" shape="15.95,70.41 15.50,69.91 15.09,69.46 14.72,69.05 14.38,68.67 14.08,68.32 13.81,68.00 13.56,67.69 13.33,67.39 13.11,67.10 12.91,66.80 12.72,66.49 12.53,66.17 12.34,65.82 12.16,65.44 11.96,65.02 11.76,64.57 11.55,64.06 11.31,63.50 11.06,62.87"/>
    </edge>
    <edge id=":7_2" function="internal">
        <lane id=":7_2_0" index="0" disallow="bus truck rail_fast" speed="36.11" length="6.32" width="2.50" shape="12.83,68.93 12.73,68.47 12.64,68.05 12.55,67.67 12.48,67.33 12.41,67.02 12.35,66.73 12.29,66.46 12.22,66.21 12.16,65.96 12.10,65.72 12.02,65.48 11.95,65.23 11.86,64.97 11.76,64.69 11.65,64.39 11.53,64.07 11.39,63.71 11.24,63.31 11.06,62.87"/>
    </edge>

    <edge id="1015" from="1" to="2" priority="1" spreadType="center" length="94.59">
        <lane id="1015_0" index="0" disallow="rail_fast" speed="36.11" length="94.59" width="2.50" customShape="1" shape="6.36,74.20 -44.38,81.76 -85.62,88.31"/>
    </edge>
    <edge id="1016" from="3" to="4" priority="1" spreadType="center" length="94.61">
        <lane id="1016_0" index="0" disallow="rail_fast" speed="36.11" length="94.61" width="2.50" customShape="1" shape="-86.01,85.84 -44.76,79.29 5.61,71.78"/>
    </edge>
    <edge id="1017" from="5" to="6" priority="1" spreadType="center" length="172.01">
        <lane id="1017_0" index="0" disallow="bus truck rail_fast" speed="36.11" length="172.01" width="2.50" customShape="1" shape="-29.16,-102.38 -27.09,-86.42 -25.05,-71.48 -23.20,-60.57 -20.70,-48.25 -15.27,-24.73 -11.99,-11.55 -8.97,-0.91 -2.52,19.21 2.17,33.02 7.44,47.15 13.37,61.92"/>
    </edge>
    <edge id="1018" from="7" to="8" priority="1" spreadType="center" length="172.65">
        <lane id="1018_0" index="0" disallow="bus truck rail_fast" speed="36.11" length="172.65" width="2.50" customShape="1" shape="11.06,62.87 5.10,48.05 -0.19,33.86 -4.89,19.99 -11.36,-0.19 -14.40,-10.89 -17.69,-24.12 -23.14,-47.71 -25.65,-60.09 -27.51,-71.06 -29.57,-86.06 -31.64,-102.05"/>
    </edge>
    <edge id="1019" from="9" to="10" priority="1" spreadType="center" length="306.14">
        <lane id="1019_0" index="0" disallow="rail_fast" speed="36.11" length="306.14" width="2.50" customShape="1" shape="329.53,47.25 260.01,51.37 216.98,53.77 139.53,59.46 107.59,62.33 82.17,64.97 26.63,71.52"/>
    </edge>
    <edge id="1020" from="11" to="12" priority="1" spreadType="center" length="306.29">
        <lane id="1020_0" index="0" disallow="rail_fast" speed="36.11" length="306.29" width="2.50" customShape="1" shape="25.68,69.12 81.90,62.48 107.34,59.84 139.31,56.97 216.80,51.27 259.84,48.87 329.38,44.75"/>
    </edge>
    <edge id="1021" from="13" to="14" priority="1" spreadType="center" length="4.31">
        <lane id="1021_0" index="0" disallow="rail_fast" speed="36.11" length="4.31" width="2.50" customShape="1" shape="21.15,80.86 21.24,81.08 22.04,83.09"/>
    </edge>
    <edge id="1022" from="15" to="16" priority="1" spreadType="center" length="4.31">
        <lane id="1022_0" index="0" disallow="rail_fast" speed="36.11" length="4.31" width="2.50" customShape="1" shape="19.71,84.01 18.92,82.00 18.69,81.42"/>
    </edge>
    <edge id="1023" from="4" to="13" priority="1" spreadType="center" length="16.45">
        <lane id="1023_0" index="0" disallow="bus truck rail_fast" speed="36.11" length="16.45" width="2.50" customShape="1" shape="15.64,72.61 15.78,72.75"/>
    </edge>
    <edge id="1024" from="6" to="13" priority="1" spreadType="center" length="16.86">
        <lane id="1024_0" index="0" disallow="rail_fast" speed="36.11" length="16.86" width="2.50" customShape="1" shape="16.88,70.44 16.95,70.62"/>
    </edge>
    <edge id="1025" from="4" to="7" priority="1" spreadType="center" length="10.03">
        <lane id="1025_0" index="0" disallow="bus truck rail_fast" speed="36.11" length="10.03" width="2.50" customShape="1" shape="12.87,69.12 12.83,68.93"/>
    </edge>
    <edge id="1026" from="16" to="1" priority="1" spreadType="center" length="13.07">
        <lane id="1026_0" index="0" disallow="bus truck rail_fast" speed="36.11" length="13.07" width="2.50" customShape="1" shape="14.05,74.45 13.85,74.42"/>
    </edge>
    <edge id="1027" from="6" to="11" priority="1" spreadType="center" length="12.71">
        <lane id="1027_0" index="0" disallow="bus truck rail_fast" speed="36.11" length="12.71" width="2.50" customShape="1" shape="18.09,68.72 18.28,68.76"/>
    </edge>
    <edge id="1028" from="10" to="7" priority="1" spreadType="center" length="15.98">
        <lane id="1028_0" index="0" disallow="bus truck rail_fast" speed="36.11" length="15.98" width="2.50" customShape="1" shape="16.08,70.56 15.95,70.41"/>
    </edge>
    <edge id="1029" from="16" to="11" priority="1" spreadType="center" length="15.13">
        <lane id="1029_0" index="0" disallow="bus truck rail_fast" speed="36.11" length="15.13" width="2.50" customShape="1" shape="17.67,72.39 17.82,72.26"/>
    </edge>
    <edge id="1030" from="16" to="7" priority="1" spreadType="center" length="16.83">
        <lane id="1030_0" index="0" disallow="rail_fast" speed="36.11" length="16.83" width="2.50" customShape="1" shape="15.08,72.64 15.01,72.46"/>
    </edge>
    <edge id="1031" from="10" to="13" priority="1" spreadType="center" length="10.43">
        <lane id="1031_0" index="0" disallow="bus truck rail_fast" speed="36.11" length="10.43" width="2.50" customShape="1" shape="19.15,74.10 19.20,74.29"/>
    </edge>
    <edge id="1032" from="6" to="1" priority="1" spreadType="center" length="14.69">
        <lane id="1032_0" index="0" disallow="bus truck rail_fast" speed="36.11" length="14.69" width="2.50" customShape="1" shape="14.16,70.86 14.00,70.99"/>
    </edge>
    <edge id="1033" from="10" to="1" priority="1" spreadType="center" length="16.73">
        <lane id="1033_0" index="0" disallow="bus truck rail_fast" speed="36.11" length="16.73" width="2.50" customShape="1" shape="15.53,72.94 15.33,72.97"/>
    </edge>
    <edge id="1034" from="4" to="11" priority="1" spreadType="center" length="16.80">
        <lane id="1034_0" index="0" disallow="bus truck rail_fast" speed="36.11" length="16.80" width="2.50" customShape="1" shape="16.44,70.30 16.64,70.28"/>
    </edge>

    <junction id="1" type="priority" x="7.87" y="73.97" incLanes="1026_0 1033_0 1032_0" intLanes=":1_0_0 :1_1_0 :1_2_0" shape="16.12,78.72 16.54,75.18 16.11,74.62 16.10,74.41 16.23,74.23 16.49,74.11 16.88,74.03 16.52,71.55 15.65,71.53 15.42,71.40 15.33,71.18 15.38,70.88 15.57,70.49 13.62,67.12 12.87,69.86 11.85,70.93 10.39,71.81 8.50,72.48 6.18,72.96 6.55,75.43 8.82,75.22 10.82,75.32 12.56,75.72 14.02,76.41 15.21,77.42">
        <request index="0" response="000" foes="110" cont="0"/>
        <request index="1" response="101" foes="101" cont="0"/>
        <request index="2" response="001" foes="011" cont="0"/>
    </junction>
    <junction id="10" type="priority" x="24.46" y="71.78" incLanes="1019_0" intLanes=":10_0_0 :10_1_0 :10_2_0" shape="26.78,72.77 26.48,70.28 23.70,70.48 21.24,70.39 19.10,70.00 17.29,69.32 15.80,68.34 14.62,67.06 14.38,70.36 14.99,71.10 15.02,71.38 14.86,71.60 14.52,71.77 14.00,71.88 14.32,74.36 16.53,74.30 17.32,74.49 17.90,74.81 18.27,75.28 18.43,75.90 21.85,79.30">
        <request index="0" response="000" foes="000" cont="0"/>
        <request index="1" response="000" foes="000" cont="0"/>
        <request index="2" response="000" foes="000" cont="0"/>
    </junction>
    <junction id="11" type="priority" x="24.16" y="69.30" incLanes="1027_0 1034_0 1029_0" intLanes=":11_0_0 :11_1_0 :11_2_0" shape="25.83,70.36 25.53,67.88 23.27,68.03 21.27,67.90 19.55,67.51 18.10,66.84 16.93,65.91 15.99,64.64 15.59,68.07 16.02,68.62 16.03,68.83 15.89,68.99 15.60,69.12 15.18,69.21 15.50,71.69 16.25,71.72 16.44,71.87 16.51,72.10 16.45,72.42 16.28,72.82 18.42,76.29 19.10,73.40 20.11,72.30 21.57,71.42 23.47,70.78">
        <request index="0" response="000" foes="110" cont="0"/>
        <request index="1" response="101" foes="101" cont="0"/>
        <request index="2" response="001" foes="011" cont="0"/>
    </junction>
    <junction id="12" type="dead_end" x="329.38" y="44.75" incLanes="1020_0" intLanes="" shape="329.31,43.50 329.45,46.00"/>
    <junction id="13" type="priority" x="20.45" y="79.09" incLanes="1031_0 1024_0 1023_0" intLanes=":13_0_0 :13_1_0 :13_2_0" shape="19.99,81.32 22.32,80.40 25.24,72.92 20.65,71.63 19.60,71.69 19.09,71.35 18.58,70.77 18.08,69.95 17.59,68.89 15.28,69.85 15.44,70.62 15.34,70.83 15.11,70.94 14.76,70.93 14.29,70.81 11.48,72.67 14.74,73.80 16.22,75.03 17.59,76.69 18.85,78.78">
        <request index="0" response="000" foes="110" cont="0"/>
        <request index="1" response="101" foes="101" cont="0"/>
        <request index="2" response="001" foes="011" cont="0"/>
    </junction>
    <junction id="14" type="dead_end" x="22.04" y="83.09" incLanes="1021_0" intLanes="" shape="23.20,82.63 20.87,83.55"/>
    <junction id="15" type="dead_end" x="19.71" y="84.01" incLanes="" intLanes="" shape="20.87,83.55 18.55,84.47"/>
    <junction id="16" type="priority" x="18.13" y="80.01" incLanes="1022_0" intLanes=":16_0_0 :16_1_0 :16_2_0" shape="17.53,81.88 19.85,80.96 19.07,78.62 18.68,76.58 18.69,74.83 19.10,73.37 19.90,72.22 21.11,71.35 17.11,71.25 16.58,71.55 16.33,71.59 16.12,71.53 15.95,71.37 15.80,71.10 13.49,72.06 13.59,72.64 13.49,72.82 13.28,72.92 12.97,72.95 12.66,72.93 9.79,75.08 12.88,75.78 14.23,76.72 15.45,78.05 16.55,79.77">
        <request index="0" response="000" foes="000" cont="0"/>
        <request index="1" response="000" foes="000" cont="0"/>
        <request index="2" response="000" foes="000" cont="0"/>
    </junction>
    <junction id="2" type="dead_end" x="-85.62" y="88.31" incLanes="1015_0" intLanes="" shape="-85.43,89.55 -85.82,87.08"/>
    <junction id="3" type="dead_end" x="-86.01" y="85.84" incLanes="" intLanes="" shape="-85.82,87.08 -86.21,84.61"/>
    <junction id="4" type="priority" x="7.51" y="71.50" incLanes="1016_0" intLanes=":4_0_0 :4_1_0 :4_2_0" shape="17.37,76.08 17.59,72.71 17.08,72.06 17.06,71.81 17.19,71.61 17.48,71.46 17.93,71.37 17.57,68.90 15.40,68.98 14.63,68.84 14.07,68.57 13.73,68.17 13.60,67.65 10.32,64.31 5.43,70.55 5.79,73.02 8.33,72.77 10.63,72.83 12.68,73.19 14.49,73.85 16.05,74.82">
        <request index="0" response="000" foes="000" cont="0"/>
        <request index="1" response="000" foes="000" cont="0"/>
        <request index="2" response="000" foes="000" cont="0"/>
    </junction>
    <junction id="5" type="dead_end" x="-29.16" y="-102.38" incLanes="" intLanes="" shape="-30.40,-102.22 -27.92,-102.54"/>
    <junction id="6" type="priority" x="14.01" y="63.50" incLanes="1017_0" intLanes=":6_0_0 :6_1_0 :6_2_0" shape="16.24,72.16 18.55,71.21 18.38,70.45 18.48,70.24 18.69,70.13 19.03,70.14 19.48,70.25 22.29,68.14 19.17,67.40 17.82,66.47 16.59,65.17 15.49,63.50 14.53,61.45 12.21,62.38 12.98,64.66 13.33,66.66 13.28,68.38 12.83,69.82 11.96,70.99 10.69,71.88 14.68,71.96 15.25,71.34 15.51,71.29 15.76,71.41 16.01,71.70">
        <request index="0" response="000" foes="000" cont="0"/>
        <request index="1" response="000" foes="000" cont="0"/>
        <request index="2" response="000" foes="000" cont="0"/>
    </junction>
    <junction id="7" type="priority" x="11.70" y="64.45" incLanes="1030_0 1028_0 1025_0" intLanes=":7_0_0 :7_1_0 :7_2_0" shape="14.29,73.99 16.60,73.04 16.47,72.39 16.56,72.22 16.76,72.13 17.07,72.14 17.46,72.23 20.21,70.42 17.02,69.07 15.62,67.90 14.36,66.40 13.22,64.57 12.22,62.41 9.90,63.34 7.03,70.32 11.54,71.35 12.39,71.18 12.84,71.49 13.31,72.06 13.79,72.90">
        <request index="0" response="110" foes="110" cont="0"/>
        <request index="1" response="100" foes="101" cont="0"/>
        <request index="2" response="000" foes="011" cont="0"/>
    </junction>
    <junction id="8" type="dead_end" x="-31.64" y="-102.05" incLanes="1018_0" intLanes="" shape="-32.88,-101.89 -30.40,-102.21"/>
    <junction id="9" type="dead_end" x="329.53" y="47.25" incLanes="" intLanes="" shape="329.46,46.00 329.61,48.49"/>

    <connection from="1016" to="1025" fromLane="0" toLane="0" contPos="-4.00" via=":4_0_0" dir="r" state="M"/>
    <connection from="1016" to="1034" fromLane="0" toLane="0" contPos="-4.00" via=":4_1_0" dir="s" state="M"/>
    <connection from="1016" to="1023" fromLane="0" toLane="0" contPos="-4.00" via=":4_2_0" dir="L" state="M"/>
    <connection from="1017" to="1027" fromLane="0" toLane="0" contPos="-4.00" via=":6_0_0" dir="r" state="M"/>
    <connection from="1017" to="1024" fromLane="0" toLane="0" contPos="-4.00" via=":6_1_0" dir="s" state="M"/>
    <connection from="1017" to="1032" fromLane="0" toLane="0" contPos="-4.00" via=":6_2_0" dir="l" state="M"/>
    <connection from="1019" to="1031" fromLane="0" toLane="0" contPos="-4.00" via=":10_0_0" dir="r" state="M"/>
    <connection from="1019" to="1033" fromLane="0" toLane="0" contPos="-4.00" via=":10_1_0" dir="s" state="M"/>
    <connection from="1019" to="1028" fromLane="0" toLane="0" contPos="-4.00" via=":10_2_0" dir="L" state="M"/>
    <connection from="1022" to="1026" fromLane="0" toLane="0" contPos="-4.00" via=":16_0_0" dir="R" state="M"/>
    <connection from="1022" to="1030" fromLane="0" toLane="0" contPos="-4.00" via=":16_1_0" dir="s" state="M"/>
    <connection from="1022" to="1029" fromLane="0" toLane="0" contPos="-4.00" via=":16_2_0" dir="l" state="M"/>
    <connection from="1023" to="1021" fromLane="0" toLane="0" contPos="-4.00" via=":13_2_0" dir="s" state="m"/>
    <connection from="1024" to="1021" fromLane="0" toLane="0" contPos="-4.00" via=":13_1_0" dir="s" state="m"/>
    <connection from="1025" to="1018" fromLane="0" toLane="0" contPos="-4.00" via=":7_2_0" dir="r" state="M"/>
    <connection from="1026" to="1015" fromLane="0" toLane="0" contPos="-4.00" via=":1_0_0" dir="s" state="M"/>
    <connection from="1027" to="1020" fromLane="0" toLane="0" contPos="-4.00" via=":11_0_0" dir="s" state="M"/>
    <connection from="1028" to="1018" fromLane="0" toLane="0" contPos="-4.00" via=":7_1_0" dir="l" state="m"/>
    <connection from="1029" to="1020" fromLane="0" toLane="0" contPos="-4.00" via=":11_2_0" dir="l" state="m"/>
    <connection from="1030" to="1018" fromLane="0" toLane="0" contPos="-4.00" via=":7_0_0" dir="s" state="m"/>
    <connection from="1031" to="1021" fromLane="0" toLane="0" contPos="-4.00" via=":13_0_0" dir="r" state="M"/>
    <connection from="1032" to="1015" fromLane="0" toLane="0" contPos="-4.00" via=":1_2_0" dir="l" state="m"/>
    <connection from="1033" to="1015" fromLane="0" toLane="0" contPos="-4.00" via=":1_1_0" dir="s" state="m"/>
    <connection from="1034" to="1020" fromLane="0" toLane="0" contPos="-4.00" via=":11_1_0" dir="s" state="m"/>

    <connection from=":1_0" to="1015" fromLane="0" toLane="0" dir="s" state="M"/>
    <connection from=":1_1" to="1015" fromLane="0" toLane="0" dir="s" state="M"/>
    <connection from=":1_2" to="1015" fromLane="0" toLane="0" dir="l" state="M"/>
    <connection from=":10_0" to="1031" fromLane="0" toLane="0" dir="r" state="M"/>
    <connection from=":10_1" to="1033" fromLane="0" toLane="0" dir="s" state="M"/>
    <connection from=":10_2" to="1028" fromLane="0" toLane="0" dir="L" state="M"/>
    <connection from=":11_0" to="1020" fromLane="0" toLane="0" dir="s" state="M"/>
    <connection from=":11_1" to="1020" fromLane="0" toLane="0" dir="s" state="M"/>
    <connection from=":11_2" to="1020" fromLane="0" toLane="0" dir="l" state="M"/>
    <connection from=":13_0" to="1021" fromLane="0" toLane="0" dir="r" state="M"/>
    <connection from=":13_1" to="1021" fromLane="0" toLane="0" dir="s" state="M"/>
    <connection from=":13_2" to="1021" fromLane="0" toLane="0" dir="s" state="M"/>
    <connection from=":16_0" to="1026" fromLane="0" toLane="0" dir="R" state="M"/>
    <connection from=":16_1" to="1030" fromLane="0" toLane="0" dir="s" state="M"/>
    <connection from=":16_2" to="1029" fromLane="0" toLane="0" dir="l" state="M"/>
    <connection from=":4_0" to="1025" fromLane="0" toLane="0" dir="r" state="M"/>
    <connection from=":4_1" to="1034" fromLane="0" toLane="0" dir="s" state="M"/>
    <connection from=":4_2" to="1023" fromLane="0" toLane="0" dir="L" state="M"/>
    <connection from=":6_0" to="1027" fromLane="0" toLane="0" dir="r" state="M"/>
    <connection from=":6_1" to="1024" fromLane="0" toLane="0" dir="s" state="M"/>
    <connection from=":6_2" to="1032" fromLane="0" toLane="0" dir="l" state="M"/>
    <connection from=":7_0" to="1018" fromLane="0" toLane="0" dir="s" state="M"/>
    <connection from=":7_1" to="1018" fromLane="0" toLane="0" dir="l" state="M"/>
    <connection from=":7_2" to="1018" fromLane="0" toLane="0" dir="r" state="M"/>

</net>
