<routes>
	<vehicle depart="0.1" departLane="0" departPos="240.85540952514467" departSpeed="8.7965" id="30" type="passenger">
		<route edges="1019 1028 1018"/>
	</vehicle>
	<vehicle depart="0.1" departLane="0" departPos="177.36953462898853" departSpeed="7.6661" id="32" type="passenger">
		<route edges="1019 1033 1015"/>
	</vehicle>
	<vehicle depart="0.1" departLane="0" departPos="0" departSpeed="8.9724" id="33" type="passenger">
		<route edges="1020"/>
	</vehicle>
	<vehicle depart="0.1" departLane="0" departPos="85.25790990535984" departSpeed="8.579" id="34" type="passenger">
		<route edges="1020"/>
	</vehicle>
	<vehicle depart="0.1" departLane="0" departPos="147.99197112036262" departSpeed="6.9032" id="35" type="passenger">
		<route edges="1019 1033 1015"/>
	</vehicle>
	<vehicle depart="0.1" departLane="0" departPos="2.4201667176908246" departSpeed="8.6364" id="36" type="passenger">
		<route edges="1027 1020"/>
	</vehicle>
	<vehicle depart="0.1" departLane="0" departPos="130.59610486729082" departSpeed="7.3757" id="37" type="passenger">
		<route edges="1019 1033 1015"/>
	</vehicle>
	<vehicle depart="0.1" departLane="0" departPos="0" departSpeed="7.7" id="38" type="passenger">
		<route edges="1020"/>
	</vehicle>
	<vehicle depart="0.1" departLane="0" departPos="0" departSpeed="7.0427" id="39" type="passenger">
		<route edges="1019 1033 1015"/>
	</vehicle>
	<vehicle depart="0.1" departLane="0" departPos="0" departSpeed="9.0844" id="310" type="passenger">
		<route edges="1018"/>
	</vehicle>
	<vehicle depart="0.1" departLane="0" departPos="8.27268787345335" departSpeed="6.6474" id="311" type="passenger">
		<route edges="1025 1018"/>
	</vehicle>
	<vehicle depart="0.1" departLane="0" departPos="88.20482874092178" departSpeed="6.6438" id="312" type="passenger">
		<route edges="1016 1025 1018"/>
	</vehicle>
	<vehicle depart="0.1" departLane="0" departPos="0" departSpeed="7.9789" id="313" type="passenger">
		<route edges="1019 1033 1015"/>
	</vehicle>
	<vehicle depart="0.1" departLane="0" departPos="0" departSpeed="8.1686" id="314" type="passenger">
		<route edges="1019 1033 1015"/>
	</vehicle>
	<vehicle depart="0.1" departLane="0" departPos="0" departSpeed="7.6753" id="315" type="passenger">
		<route edges="1019 1033 1015"/>
	</vehicle>
</routes>
