<!-- generated on 2020-12-18 17:02:23.893477 by ipykernel_launcher.py v1_2_0+5214-53edc58fcd
-->
<edges>
	<edge from="1" function="normal" id="1015" length="94.58829528536874" numLanes="1" priority="1" speed="36.11111111111111" spreadType="center" to="2">
		<lane allow="moped bicycle pedestrian custom1 trailer evehicle rail_urban ship private truck vip custom2 authority delivery rail_electric taxi tram army hov coach motorcycle passenger bus rail emergency" index="0" length="94.58829528536874" shape="7.8727,73.9715 -44.379999999999995,81.7568 -85.6212,88.31125" speed="36.11111111111111" width="2.4999877519699916"/>
	</edge>
	<edge from="3" function="normal" id="1016" length="94.61390389717201" numLanes="1" priority="1" speed="36.11111111111111" spreadType="center" to="4">
		<lane allow="moped bicycle pedestrian custom1 trailer evehicle rail_urban ship private truck vip custom2 authority delivery rail_electric taxi tram army hov coach motorcycle passenger bus rail emergency" index="0" length="94.61390389717201" shape="-86.01355000000001,85.84219999999999 -44.760400000000004,79.28595 7.50575,71.49915" speed="36.11111111111111" width="2.498800068032668"/>
	</edge>
	<edge from="5" function="normal" id="1017" length="172.00949874039924" numLanes="1" priority="1" speed="36.11111111111111" spreadType="center" to="6">
		<lane allow="moped bicycle pedestrian custom1 trailer evehicle rail_urban ship private vip custom2 authority delivery rail_electric taxi tram army hov coach motorcycle passenger rail emergency" index="0" length="172.00949874039924" shape="-29.160249999999998,-102.38325 -27.0931,-86.4234 -25.048900000000003,-71.47555 -23.19795,-60.567949999999996 -20.697049999999997,-48.2468 -15.26655,-24.725900000000003 -11.993549999999999,-11.548100000000002 -8.96805,-0.90625 -2.5153499999999998,19.206 2.16585,33.01835 7.4373,47.15445 14.00755,63.5025" speed="36.11111111111111" width="2.4995776383221204"/>
	</edge>
	<edge from="7" function="normal" id="1018" length="172.65034472879475" numLanes="1" priority="1" speed="36.11111111111111" spreadType="center" to="8">
		<lane allow="moped bicycle pedestrian custom1 trailer evehicle rail_urban ship private vip custom2 authority delivery rail_electric taxi tram army hov coach motorcycle passenger rail emergency" index="0" length="172.65034472879475" shape="11.6954,64.4515 5.1045,48.053 -0.18870000000000003,33.85835 -4.8882,19.993 -11.36195,-0.18614999999999998 -14.4047,-10.88785 -17.69225,-24.1202 -23.1388,-47.71085 -25.651899999999998,-60.09065 -27.51395,-71.05795 -29.56675,-86.05765 -31.6381,-102.05145" speed="36.11111111111111" width="2.4994330397112066"/>
	</edge>
	<edge from="9" function="normal" id="1019" length="306.1370676097482" numLanes="1" priority="1" speed="36.11111111111111" spreadType="center" to="10">
		<lane allow="moped bicycle pedestrian custom1 trailer evehicle rail_urban ship private truck vip custom2 authority delivery rail_electric taxi tram army hov coach motorcycle passenger bus rail emergency" index="0" length="306.1370676097482" shape="329.53125,47.2471 260.00685,51.36575 216.98325,53.766149999999996 139.52985,59.45885 107.59145000000001,62.330799999999996 82.17445000000001,64.9688 24.4578,71.77995" speed="36.11111111111111" width="2.499941529316232"/>
	</edge>
	<edge from="11" function="normal" id="1020" length="306.28666894433434" numLanes="1" priority="1" speed="36.11111111111111" spreadType="center" to="12">
		<lane allow="moped bicycle pedestrian custom1 trailer evehicle rail_urban ship private truck vip custom2 authority delivery rail_electric taxi tram army hov coach motorcycle passenger bus rail emergency" index="0" length="306.28666894433434" shape="24.15835,69.2986 81.90445,62.483450000000005 107.34445,59.84305 139.30875,56.96865 216.8007,51.27275 259.8428,48.87105 329.3807,44.75165" speed="36.11111111111111" width="2.498765585244044"/>
	</edge>
	<edge from="13" function="normal" id="1021" length="4.308256325523132" numLanes="1" priority="1" speed="36.11111111111111" spreadType="center" to="14">
		<lane allow="moped bicycle pedestrian custom1 trailer evehicle rail_urban ship private truck vip custom2 authority delivery rail_electric taxi tram army hov coach motorcycle passenger bus rail emergency" index="0" length="4.308256325523132" shape="20.45375,79.08574999999999 21.242350000000002,81.082 22.03635,83.09280000000001" speed="36.11111111111111" width="2.499796587724686"/>
	</edge>
	<edge from="15" function="normal" id="1022" length="4.305232025439406" numLanes="1" priority="1" speed="36.11111111111111" spreadType="center" to="16">
		<lane allow="moped bicycle pedestrian custom1 trailer evehicle rail_urban ship private truck vip custom2 authority delivery rail_electric taxi tram army hov coach motorcycle passenger bus rail emergency" index="0" length="4.305232025439406" shape="19.71105,84.01095000000001 18.91705,82.0002 18.1301,80.00649999999999" speed="36.11111111111111" width="2.4995144808542347"/>
	</edge>
	<edge from="4" function="normal" id="1023" length="16.446589753090876" numLanes="1" priority="1" speed="36.11111111111111" spreadType="center" to="13">
		<lane allow="moped bicycle pedestrian custom1 trailer evehicle rail_urban ship private vip custom2 authority delivery rail_electric taxi tram army hov coach motorcycle passenger rail emergency" index="0" length="16.446589753090876" shape="7.50575,71.49915 8.86735,71.35315 10.23655,71.3202 11.602,71.4229 12.9463,71.6817 14.24635,72.1104 15.47375,72.7168 16.598,73.498 17.6045,74.42585 18.486600000000003,75.4729 19.24775,76.6113 19.89695,77.81729999999999 20.45375,79.08574999999999" speed="36.11111111111111" width="2.498800068032668"/>
	</edge>
	<edge from="6" function="normal" id="1024" length="16.86390156506377" numLanes="1" priority="1" speed="36.11111111111111" spreadType="center" to="13">
		<lane allow="moped bicycle pedestrian custom1 trailer evehicle rail_urban ship private truck vip custom2 authority delivery rail_electric taxi tram army hov coach motorcycle passenger bus rail emergency" index="0" length="16.86390156506377" shape="14.00755,63.5025 17.22485,71.2788 20.45375,79.08574999999999" speed="36.11111111111111" width="2.4995776383221204"/>
	</edge>
	<edge from="4" function="normal" id="1025" length="10.033610660285639" numLanes="1" priority="1" speed="36.11111111111111" spreadType="center" to="7">
		<lane allow="moped bicycle pedestrian custom1 trailer evehicle rail_urban ship private vip custom2 authority delivery rail_electric taxi tram army hov coach motorcycle passenger rail emergency" index="0" length="10.033610660285639" shape="7.50575,71.49915 8.6034,71.28434999999999 9.67085,70.95145 10.66995,70.45215 11.5202,69.73275000000001 12.105699999999999,68.78815 12.351199999999999,67.7021 12.30745,66.58685 12.06465,65.49549999999999 11.6954,64.4515" speed="36.11111111111111" width="2.498800068032668"/>
	</edge>
	<edge from="16" function="normal" id="1026" length="13.07194085886733" numLanes="1" priority="1" speed="36.11111111111111" spreadType="center" to="1">
		<lane allow="moped bicycle pedestrian custom1 trailer evehicle rail_urban ship private vip custom2 authority delivery rail_electric taxi tram army hov coach motorcycle passenger rail emergency" index="0" length="13.07194085886733" shape="18.1301,80.00649999999999 17.66865,78.9539 17.13935,77.9682 16.53,77.05395 15.835049999999999,76.22659999999999 15.0555,75.50505000000001 14.19425,74.9046 13.2562,74.4404 12.250399999999999,74.1088 11.1939,73.90605 10.1038,73.82419999999999 8.9902,73.8515 7.8727,73.9715" speed="36.11111111111111" width="2.4995144808542347"/>
	</edge>
	<edge from="6" function="normal" id="1027" length="12.708429420786048" numLanes="1" priority="1" speed="36.11111111111111" spreadType="center" to="11">
		<lane allow="moped bicycle pedestrian custom1 trailer evehicle rail_urban ship private vip custom2 authority delivery rail_electric taxi tram army hov coach motorcycle passenger rail emergency" index="0" length="12.708429420786048" shape="14.00755,63.5025 14.446100000000001,64.44995 14.97055,65.3724 15.58335,66.23845 16.2912,67.02835 17.09225,67.72325000000001 17.97885,68.3048 18.9369,68.75925000000001 19.9459,69.08605 20.986600000000003,69.29135 22.0435,69.385 23.10465,69.38225 24.15835,69.2986" speed="36.11111111111111" width="2.498765585244044"/>
	</edge>
	<edge from="10" function="normal" id="1028" length="15.9799711042607" numLanes="1" priority="1" speed="36.11111111111111" spreadType="center" to="7">
		<lane allow="moped bicycle pedestrian custom1 trailer evehicle rail_urban ship private vip custom2 authority delivery rail_electric taxi tram army hov coach motorcycle passenger rail emergency" index="0" length="15.9799711042607" shape="24.4578,71.77995 23.1641,71.88275 21.8608,71.88475 20.545,71.76575 19.232,71.50399999999999 17.94675,71.08355 16.71735,70.49595 15.575700000000001,69.74459999999999 14.55085,68.85275 13.653500000000001,67.84915 12.8849,66.7627 12.2366,65.62205 11.6954,64.4515" speed="36.11111111111111" width="2.4994330397112066"/>
	</edge>
	<edge from="16" function="normal" id="1029" length="15.129464911990116" numLanes="1" priority="1" speed="36.11111111111111" spreadType="center" to="11">
		<lane allow="moped bicycle pedestrian custom1 trailer evehicle rail_urban ship private vip custom2 authority delivery rail_electric taxi tram army hov coach motorcycle passenger rail emergency" index="0" length="15.129464911990116" shape="18.1301,80.00649999999999 17.57615,78.39789999999999 17.20315,76.7578 17.0917,75.08144999999999 17.369,73.42724999999999 18.15655,71.94964999999999 19.39695,70.8229 20.89235,70.05965 22.503500000000003,69.5787 24.15835,69.2986" speed="36.11111111111111" width="2.498765585244044"/>
	</edge>
	<edge from="16" function="normal" id="1030" length="16.833400999343482" numLanes="1" priority="1" speed="36.11111111111111" spreadType="center" to="7">
		<lane allow="moped bicycle pedestrian custom1 trailer evehicle rail_urban ship private truck vip custom2 authority delivery rail_electric taxi tram army hov coach motorcycle passenger bus rail emergency" index="0" length="16.833400999343482" shape="18.1301,80.00649999999999 14.91085,72.22485 11.6954,64.4515" speed="36.11111111111111" width="2.4994330397112066"/>
	</edge>
	<edge from="10" function="normal" id="1031" length="10.433909157127209" numLanes="1" priority="1" speed="36.11111111111111" spreadType="center" to="13">
		<lane allow="moped bicycle pedestrian custom1 trailer evehicle rail_urban ship private vip custom2 authority delivery rail_electric taxi tram army hov coach motorcycle passenger rail emergency" index="0" length="10.433909157127209" shape="24.4578,71.77995 23.20295,71.9906 22.037100000000002,72.33425 21.0293,72.84075 20.26265,73.52369999999999 19.80565,74.41465 19.65235,75.4721 19.74365,76.638 20.0274,77.85395 20.45375,79.08574999999999" speed="36.11111111111111" width="2.499796587724686"/>
	</edge>
	<edge from="6" function="normal" id="1032" length="14.688761636732123" numLanes="1" priority="1" speed="36.11111111111111" spreadType="center" to="1">
		<lane allow="moped bicycle pedestrian custom1 trailer evehicle rail_urban ship private vip custom2 authority delivery rail_electric taxi tram army hov coach motorcycle passenger rail emergency" index="0" length="14.688761636732123" shape="14.00755,63.5025 14.51045,64.92465 14.84965,66.46019999999999 14.909849999999999,68.11505 14.52295,69.8159 13.5998,71.33715000000001 12.29685,72.46594999999999 10.840499999999999,73.20984999999999 9.3559,73.6797 7.8727,73.9715" speed="36.11111111111111" width="2.4995776383221204"/>
	</edge>
	<edge from="10" function="normal" id="1033" length="16.72948259104001" numLanes="1" priority="1" speed="36.11111111111111" spreadType="center" to="1">
		<lane allow="moped bicycle pedestrian custom1 trailer evehicle rail_urban ship private vip custom2 authority delivery rail_electric taxi tram army hov coach motorcycle passenger rail emergency" index="0" length="16.72948259104001" shape="24.4578,71.77995 10.07765,73.65115 7.8727,73.9715" speed="36.11111111111111" width="2.499941529316232"/>
	</edge>
	<edge from="4" function="normal" id="1034" length="16.79758973768693" numLanes="1" priority="1" speed="36.11111111111111" spreadType="center" to="11">
		<lane allow="moped bicycle pedestrian custom1 trailer evehicle rail_urban ship private vip custom2 authority delivery rail_electric taxi tram army hov coach motorcycle passenger rail emergency" index="0" length="16.79758973768693" shape="7.50575,71.49915 9.72935,71.17554999999999 24.15835,69.2986" speed="36.11111111111111" width="2.498765585244044"/>
	</edge>
</edges>
