<!-- generated on 2020-12-18 17:02:23.981447 by ipykernel_launcher.py v1_2_0+5214-53edc58fcd
-->
<nodes>
	<node id="1" type="from" x="7.8727" y="73.9715"/>
	<node id="2" type="to" x="-85.6212" y="88.31125"/>
	<node id="3" type="from" x="-86.01355000000001" y="85.84219999999999"/>
	<node id="4" type="to" x="7.50575" y="71.49915"/>
	<node id="5" type="from" x="-29.160249999999998" y="-102.38325"/>
	<node id="6" type="to" x="14.00755" y="63.5025"/>
	<node id="7" type="from" x="11.6954" y="64.4515"/>
	<node id="8" type="to" x="-31.6381" y="-102.05145"/>
	<node id="9" type="from" x="329.53125" y="47.2471"/>
	<node id="10" type="to" x="24.4578" y="71.77995"/>
	<node id="11" type="from" x="24.15835" y="69.2986"/>
	<node id="12" type="to" x="329.3807" y="44.75165"/>
	<node id="13" type="from" x="20.45375" y="79.08574999999999"/>
	<node id="14" type="to" x="22.03635" y="83.09280000000001"/>
	<node id="15" type="from" x="19.71105" y="84.01095000000001"/>
	<node id="16" type="to" x="18.1301" y="80.00649999999999"/>
</nodes>
