<!-- generated on 2020-12-18 15:54:58.327121 by ipykernel_launcher.py v1_2_0+5214-53edc58fcd
-->
<edges>
	<edge from="1" function="normal" id="64" length="146.63155316162815" numLanes="5" priority="1" speed="36.11111111111111" spreadType="center" to="2">
		<lane allow="moped bicycle pedestrian custom1 trailer evehicle rail_urban ship private vip custom2 authority delivery rail_electric taxi tram army hov coach motorcycle passenger rail emergency" index="0" length="146.63155316162815" shape="-19.1016,10.43855 0.08114999999999994,-11.1984 1.09535,-12.35145 2.7473,-14.184149999999999 10.13305,-22.0687 12.7834,-25.0117 21.5363,-34.23545 31.0379,-43.9407 33.83065,-46.74315 41.43345,-54.2713 42.81585,-55.657849999999996 44.3123,-57.11465 52.054249999999996,-64.47435 54.8919,-67.23845 62.39135,-74.24525 65.22905,-77.00935000000001 69.76865000000001,-81.25534999999999 73.2868,-84.49969999999999 76.1923,-87.19380000000001 84.0043,-94.31055 84.58455000000001,-94.8482 84.707,-94.96065" speed="36.11111111111111" width="3.406064579540441"/>
		<lane allow="moped bicycle pedestrian custom1 trailer evehicle rail_urban ship private vip custom2 authority delivery rail_electric taxi tram army hov coach motorcycle passenger rail emergency" index="1" length="146.63155316162815" shape="-16.4939,12.7397 -16.02235,12.201550000000001 0.72285,-6.68635 2.6754,-8.915 3.3226,-9.659500000000001 5.2382,-11.79315 10.65985,-17.60145 12.64715,-19.80085 13.25935,-20.50505 15.181650000000001,-22.594250000000002 33.511,-41.50915 36.293800000000005,-44.329499999999996 41.4092,-49.44415 43.8772,-51.8795 44.21195,-52.2143 46.637550000000005,-54.555049999999994 52.15925,-59.7578 54.45925,-62.00325 54.95895,-62.50295 57.218199999999996,-64.6901 62.731849999999994,-69.8128 64.78515,-71.7844 65.5249,-72.52414999999999 67.5206,-74.42869999999999 73.52475000000001,-79.93535 75.6723,-81.92665 76.42904999999999,-82.6323 78.5551,-84.59545 84.208,-89.7238 86.41315,-91.7445 87.08359999999999,-92.36965000000001" speed="36.11111111111111" width="3.212244685574248"/>
		<lane allow="moped bicycle pedestrian custom1 trailer evehicle rail_urban ship private vip custom2 authority delivery rail_electric taxi tram army hov coach motorcycle passenger rail emergency" index="2" length="146.63155316162815" shape="-14.0339,14.9104 -13.66705,14.501850000000001 -11.9897,12.66165 -9.317599999999999,9.62605 -2.17525,1.5431 0.44165000000000004,-1.4319 3.14055,-4.3997 5.7597000000000005,-7.312849999999999 7.7008,-9.406649999999999 10.34845,-12.355599999999999 13.07455,-15.259250000000002 15.6605,-18.1024 17.826999999999998,-20.36045 20.5101,-23.27655 27.94825,-30.807450000000003 30.627850000000002,-33.71995 38.1517,-41.28605 40.83135,-44.1986 43.624700000000004,-46.9655 46.48885,-49.76435 48.526700000000005,-51.6871 51.377849999999995,-54.4386 54.46095,-57.3369 57.23535,-60.039500000000004 59.13555,-61.8334 61.982600000000005,-64.58965 64.96255,-67.36475 67.73665,-70.033 70.03729999999999,-72.149 72.9039,-74.88470000000001 75.7604,-77.4711 78.6527,-80.12110000000001 81.28450000000001,-82.50919999999999 84.19579999999999,-85.19735 86.4374,-87.23955000000001 89.32900000000001,-89.8998 89.34,-89.9097" speed="36.11111111111111" width="3.1919681452044553"/>
		<lane allow="moped bicycle pedestrian custom1 trailer evehicle rail_urban ship private vip custom2 authority delivery rail_electric taxi tram army hov coach motorcycle passenger rail emergency" index="3" length="146.63155316162815" shape="-11.46285,17.17915 -9.7318,15.262699999999999 -9.685500000000001,15.209900000000001 -9.368549999999999,14.85805 -7.15985,12.31725 -6.7759,11.877099999999999 -0.12880000000000003,4.29095 0.33949999999999997,3.7546999999999997 2.4669,1.30735 2.8719,0.8568 9.75245,-6.5497 10.257850000000001,-7.1134 12.323350000000001,-9.4895 12.76325,-9.9722 20.07505,-17.6507 20.39395,-18.00395 22.63055,-20.57695 22.906599999999997,-20.88165 30.11355,-28.2965 30.36805,-28.57495 32.6469,-31.196450000000002 40.38115,-38.7947 40.5969,-39.0314 42.90445,-41.685900000000004 50.82685,-49.2033 51.05075,-49.419799999999995 53.68345,-52.04995 53.9271,-52.286500000000004 61.4375,-59.3527 61.60155,-59.51085 64.29595,-62.20245 64.4984,-62.395399999999995 72.32075,-69.68305000000001 72.33324999999999,-69.69555 75.12305,-72.38820000000001 75.3027,-72.556 83.29365000000001,-79.8081 83.5565,-80.04935 86.17175,-82.4881 86.43505,-82.7316 91.6006,-87.4452" speed="36.11111111111111" width="3.13367991505195"/>
		<lane allow="moped bicycle pedestrian custom1 trailer evehicle rail_urban ship private truck vip custom2 authority delivery rail_electric taxi tram army hov coach motorcycle passenger rail emergency" index="4" length="146.63155316162815" shape="-8.8273,19.5049 -7.1447,17.5981 -7.12665,17.57745 -4.53635,14.597850000000001 -4.5144,14.572700000000001 2.48225,6.578799999999999 2.5003,6.5581499999999995 5.08575,3.5839 5.1439,3.5207 12.3011,-4.181150000000001 12.3101,-4.1915 14.940850000000001,-7.21415 15.016200000000001,-7.2940000000000005 22.6047,-15.24015 22.61365,-15.2505 25.26165,-18.2898 25.3297,-18.362650000000002 32.51025,-25.9693 32.51925,-25.97965 35.15985,-29.01195 35.28375,-29.1341 42.7364,-36.3882 42.74535,-36.39855 45.44185,-39.480149999999995 45.59275,-39.62335 53.46905,-46.99765 53.6653,-47.18765 56.31615,-49.835750000000004 56.557249999999996,-50.06715 64.05195,-57.05855 64.2484,-57.24835 66.90164999999999,-59.89855 67.1389,-60.12705 74.76759999999999,-67.28264999999999 75.0529,-67.54945000000001 77.6614,-69.98195 77.9644,-70.26169999999999 85.60985,-77.25630000000001 85.9006,-77.5248 88.5213,-79.96855 88.82249999999999,-80.247 93.91695,-84.9199" speed="36.11111111111111" width="3.4995303742073802"/>
	</edge>
</edges>
