<?xml version="1.0" encoding="UTF-8"?>

<!-- generated on Fri Dec 18 15:54:58 2020 by Eclipse SUMO netconvert Version 1.8.0
<configuration xmlns:xsi="http://www.w3.org/2001/XMLSchema-instance" xsi:noNamespaceSchemaLocation="http://sumo.dlr.de/xsd/netconvertConfiguration.xsd">

    <input>
        <node-files value="./converted_scenarios/NGSIM/US101/USA_US101-8_1_I-1-1/nodes.net.xml"/>
        <edge-files value="./converted_scenarios/NGSIM/US101/USA_US101-8_1_I-1-1/edges.net.xml"/>
        <connection-files value="./converted_scenarios/NGSIM/US101/USA_US101-8_1_I-1-1/_connections.net.xml"/>
        <tllogic-files value="./converted_scenarios/NGSIM/US101/USA_US101-8_1_I-1-1/_tll.net.xml"/>
    </input>

    <output>
        <output-file value="./converted_scenarios/NGSIM/US101/USA_US101-8_1_I-1-1/USA_US101-8_1_I-1-1.net.xml"/>
    </output>

    <processing>
        <plain.extend-edge-shape value="true"/>
        <geometry.remove.keep-edges.explicit value="true"/>
        <geometry.avoid-overlap value="true"/>
        <offset.disable-normalization value="true"/>
    </processing>

    <junctions>
        <no-turnarounds value="true"/>
        <junctions.internal-link-detail value="20"/>
    </junctions>

    <report>
        <aggregate-warnings value="5"/>
    </report>

    <random_number>
        <seed value="1234"/>
    </random_number>

</configuration>
-->

<net version="1.6" junctionCornerDetail="5" junctionLinkDetail="20" limitTurnSpeed="5.50" xmlns:xsi="http://www.w3.org/2001/XMLSchema-instance" xsi:noNamespaceSchemaLocation="http://sumo.dlr.de/xsd/net_file.xsd">

    <location netOffset="0.00,0.00" convBoundary="-13.98,-89.92,89.33,14.95" origBoundary="-19.10,-94.96,93.92,19.50" projParameter="!"/>

    <edge id="64" from="1" to="2" priority="1" spreadType="center" length="146.63">
        <lane id="64_0" index="0" disallow="bus truck rail_fast" speed="36.11" length="146.63" width="3.41" customShape="1" shape="-19.10,10.44 0.08,-11.20 1.10,-12.35 2.75,-14.18 10.13,-22.07 12.78,-25.01 21.54,-34.24 31.04,-43.94 33.83,-46.74 41.43,-54.27 42.82,-55.66 44.31,-57.11 52.05,-64.47 54.89,-67.24 62.39,-74.25 65.23,-77.01 69.77,-81.26 73.29,-84.50 76.19,-87.19 84.00,-94.31 84.58,-94.85 84.71,-94.96"/>
        <lane id="64_1" index="1" disallow="bus truck rail_fast" speed="36.11" length="146.63" width="3.21" customShape="1" shape="-16.49,12.74 -16.02,12.20 0.72,-6.69 2.68,-8.91 3.32,-9.66 5.24,-11.79 10.66,-17.60 12.65,-19.80 13.26,-20.51 15.18,-22.59 33.51,-41.51 36.29,-44.33 41.41,-49.44 43.88,-51.88 44.21,-52.21 46.64,-54.56 52.16,-59.76 54.46,-62.00 54.96,-62.50 57.22,-64.69 62.73,-69.81 64.79,-71.78 65.52,-72.52 67.52,-74.43 73.52,-79.94 75.67,-81.93 76.43,-82.63 78.56,-84.60 84.21,-89.72 86.41,-91.74 87.08,-92.37"/>
        <lane id="64_2" index="2" disallow="bus truck rail_fast" speed="36.11" length="146.63" width="3.19" customShape="1" shape="-14.03,14.91 -13.67,14.50 -11.99,12.66 -9.32,9.63 -2.18,1.54 0.44,-1.43 3.14,-4.40 5.76,-7.31 7.70,-9.41 10.35,-12.36 13.07,-15.26 15.66,-18.10 17.83,-20.36 20.51,-23.28 27.95,-30.81 30.63,-33.72 38.15,-41.29 40.83,-44.20 43.62,-46.97 46.49,-49.76 48.53,-51.69 51.38,-54.44 54.46,-57.34 57.24,-60.04 59.14,-61.83 61.98,-64.59 64.96,-67.36 67.74,-70.03 70.04,-72.15 72.90,-74.88 75.76,-77.47 78.65,-80.12 81.28,-82.51 84.20,-85.20 86.44,-87.24 89.34,-89.91"/>
        <lane id="64_3" index="3" disallow="bus truck rail_fast" speed="36.11" length="146.63" width="3.13" customShape="1" shape="-11.46,17.18 -9.73,15.26 -9.37,14.86 -7.16,12.32 -6.78,11.88 -0.13,4.29 0.34,3.75 2.47,1.31 2.87,0.86 9.75,-6.55 10.26,-7.11 12.32,-9.49 12.76,-9.97 20.08,-17.65 20.39,-18.00 22.63,-20.58 22.91,-20.88 30.11,-28.30 30.37,-28.57 32.65,-31.20 40.38,-38.79 40.60,-39.03 42.90,-41.69 50.83,-49.20 51.05,-49.42 53.68,-52.05 53.93,-52.29 61.44,-59.35 61.60,-59.51 64.30,-62.20 64.50,-62.40 72.32,-69.68 75.12,-72.39 75.30,-72.56 83.29,-79.81 83.56,-80.05 86.17,-82.49 86.44,-82.73 91.60,-87.45"/>
        <lane id="64_4" index="4" disallow="bus rail_fast" speed="36.11" length="146.63" width="3.50" customShape="1" shape="-8.83,19.50 -7.14,17.60 -4.54,14.60 2.48,6.58 5.09,3.58 12.30,-4.18 14.94,-7.21 15.02,-7.29 22.60,-15.24 25.26,-18.29 32.51,-25.97 35.16,-29.01 35.28,-29.13 42.74,-36.39 45.44,-39.48 45.59,-39.62 53.47,-47.00 53.67,-47.19 56.32,-49.84 56.56,-50.07 64.05,-57.06 64.25,-57.25 66.90,-59.90 67.14,-60.13 74.77,-67.28 75.05,-67.55 77.66,-69.98 77.96,-70.26 85.61,-77.26 85.90,-77.52 88.52,-79.97 88.82,-80.25 93.92,-84.92"/>
    </edge>

    <junction id="1" type="dead_end" x="-13.98" y="14.95" incLanes="" intLanes="" shape="-7.52,20.66 -20.38,9.31"/>
    <junction id="2" type="dead_end" x="89.33" y="-89.92" incLanes="64_0 64_1 64_2 64_3 64_4" intLanes="" shape="83.55,-96.21 95.10,-83.63"/>

</net>
