<!-- generated on Tue Feb  9 22:12:08 2021 by Eclipse SUMO netconvert Version 1.8.0
<configuration xmlns:xsi="http://www.w3.org/2001/XMLSchema-instance" xsi:noNamespaceSchemaLocation="http://sumo.dlr.de/xsd/netconvertConfiguration.xsd">

    <input>
        <node-files value="./converted_scenarios/scenario-factory/DEU_Guetersloh-55_3_I-1-1/DEU_Guetersloh-55_3_I-1-1.nod.xml"/>
        <edge-files value="./converted_scenarios/scenario-factory/DEU_Guetersloh-55_3_I-1-1/DEU_Guetersloh-55_3_I-1-1.edg.xml"/>
        <connection-files value="./converted_scenarios/scenario-factory/DEU_Guetersloh-55_3_I-1-1/DEU_Guetersloh-55_3_I-1-1.con.xml"/>
        <tllogic-files value="./converted_scenarios/scenario-factory/DEU_Guetersloh-55_3_I-1-1/DEU_Guetersloh-55_3_I-1-1.tll.xml"/>
        <type-files value="/home/zen/commonroad-interactive-benchmarks/install/commonroad-map-tool/crmapconverter/sumo_map/templates/DEU.typ.xml"/>
    </input>

    <output>
        <output-file value="./converted_scenarios/scenario-factory/DEU_Guetersloh-55_3_I-1-1/DEU_Guetersloh-55_3_I-1-1.net.xml"/>
    </output>

    <processing>
        <geometry.remove.keep-edges.explicit value="true"/>
        <geometry.avoid-overlap value="true"/>
        <offset.disable-normalization value="true"/>
    </processing>

    <junctions>
        <no-turnarounds value="true"/>
        <junctions.internal-link-detail value="20"/>
    </junctions>

    <report>
        <aggregate-warnings value="5"/>
    </report>

    <random_number>
        <seed value="1234"/>
    </random_number>

</configuration>
--><net xmlns:xsi="http://www.w3.org/2001/XMLSchema-instance" version="1.6" junctionCornerDetail="5" junctionLinkDetail="20" limitTurnSpeed="5.50" xsi:noNamespaceSchemaLocation="http://sumo.dlr.de/xsd/net_file.xsd">

    <location netOffset="0.00,0.00" convBoundary="-675.62,-893.61,-540.10,-653.70" origBoundary="-675.62,-893.61,-538.49,-653.70" projParameter="!"/>

    <type id="highway.bridleway" priority="1" speed="2.78" allow="pedestrian" oneway="1" width="2.00"/>
    <type id="highway.bus_guideway" priority="1" speed="27.78" allow="bus" oneway="1"/>
    <type id="highway.cycleway" priority="1" speed="8.33" allow="bicycle" oneway="0" width="1.00"/>
    <type id="highway.footway" priority="1" speed="2.78" allow="pedestrian" oneway="1" width="2.00"/>
    <type id="highway.ford" priority="1" speed="2.78" allow="army" oneway="0"/>
    <type id="highway.living_street" priority="2" speed="2.78" disallow="tram rail_urban rail rail_electric rail_fast ship" oneway="0"/>
    <type id="highway.motorway" priority="14" speed="39.44" allow="private emergency authority army vip passenger hov taxi bus coach delivery truck trailer motorcycle evehicle custom1 custom2" oneway="1"/>
    <type id="highway.motorway_link" priority="9" speed="22.22" allow="private emergency authority army vip passenger hov taxi bus coach delivery truck trailer motorcycle evehicle custom1 custom2" oneway="1"/>
    <type id="highway.path" priority="1" speed="2.78" allow="pedestrian bicycle" oneway="0" width="2.00"/>
    <type id="highway.pedestrian" priority="1" speed="2.78" allow="pedestrian" oneway="1" width="2.00"/>
    <type id="highway.primary" priority="12" speed="27.78" disallow="pedestrian tram rail_urban rail rail_electric rail_fast ship" oneway="0"/>
    <type id="highway.primary_link" priority="7" speed="22.22" disallow="pedestrian tram rail_urban rail rail_electric rail_fast ship" oneway="0"/>
    <type id="highway.raceway" priority="15" speed="83.33" allow="vip" oneway="0"/>
    <type id="highway.residential" priority="3" speed="13.89" disallow="pedestrian tram rail_urban rail rail_electric rail_fast ship" oneway="0"/>
    <type id="highway.secondary" priority="11" speed="27.78" disallow="pedestrian tram rail_urban rail rail_electric rail_fast ship" oneway="0"/>
    <type id="highway.secondary_link" priority="6" speed="22.22" disallow="pedestrian tram rail_urban rail rail_electric rail_fast ship" oneway="0"/>
    <type id="highway.service" priority="1" speed="5.56" allow="pedestrian delivery bicycle" oneway="0"/>
    <type id="highway.stairs" priority="1" speed="1.39" allow="pedestrian" oneway="1" width="2.00"/>
    <type id="highway.step" priority="1" speed="1.39" allow="pedestrian" oneway="1" width="2.00"/>
    <type id="highway.steps" priority="1" speed="1.39" allow="pedestrian" oneway="1" width="2.00"/>
    <type id="highway.tertiary" priority="10" speed="22.22" disallow="pedestrian tram rail_urban rail rail_electric rail_fast ship" oneway="0"/>
    <type id="highway.tertiary_link" priority="5" speed="22.22" disallow="pedestrian tram rail_urban rail rail_electric rail_fast ship" oneway="0"/>
    <type id="highway.track" priority="1" speed="5.56" allow="pedestrian motorcycle moped bicycle" oneway="0"/>
    <type id="highway.trunk" priority="13" speed="27.78" disallow="pedestrian bicycle tram rail_urban rail rail_electric rail_fast ship" oneway="0"/>
    <type id="highway.trunk_link" priority="8" speed="22.22" disallow="pedestrian bicycle tram rail_urban rail rail_electric rail_fast ship" oneway="0"/>
    <type id="highway.unclassified" priority="4" speed="13.89" disallow="pedestrian tram rail_urban rail rail_electric rail_fast ship" oneway="0"/>
    <type id="highway.unsurfaced" priority="1" speed="8.33" disallow="tram rail_urban rail rail_electric rail_fast ship" oneway="0"/>
    <type id="railway.highspeed" priority="21" speed="69.44" allow="rail_fast" oneway="1"/>
    <type id="railway.light_rail" priority="19" speed="27.78" allow="rail_urban" oneway="1"/>
    <type id="railway.preserved" priority="16" speed="27.78" allow="rail" oneway="1"/>
    <type id="railway.rail" priority="20" speed="44.44" allow="rail" oneway="1"/>
    <type id="railway.subway" priority="18" speed="27.78" allow="rail_urban" oneway="1"/>
    <type id="railway.tram" priority="17" speed="13.89" allow="tram" oneway="1"/>

    <edge id=":33_0" function="internal">
        <lane id=":33_0_0" index="0" disallow="pedestrian tram rail_urban rail rail_electric rail_fast ship" speed="36.11" length="51.54" width="3.50" shape="-575.59,-844.63 -579.47,-821.46 -584.43,-793.85"/>
        <lane id=":33_0_1" index="1" disallow="pedestrian tram rail_urban rail rail_electric rail_fast ship" speed="36.11" length="51.43" width="3.50" shape="-579.05,-845.15 -582.92,-822.06 -587.87,-794.48"/>
        <lane id=":33_0_2" index="2" disallow="pedestrian tram rail_urban rail rail_electric rail_fast ship" speed="36.11" length="51.34" width="3.50" shape="-582.51,-845.68 -586.36,-822.67 -591.31,-795.10"/>
    </edge>
    <edge id=":33_3" function="internal">
        <lane id=":33_3_0" index="0" disallow="pedestrian tram rail_urban rail rail_electric rail_fast ship" speed="15.78" length="40.82" width="3.50" shape="-598.48,-807.72 -597.60,-808.86 -595.69,-812.00 -593.86,-815.78 -591.95,-820.67 -590.21,-826.18 -588.52,-832.79 -586.85,-841.02 -585.97,-846.20"/>
    </edge>
    <edge id=":33_4" function="internal">
        <lane id=":33_4_0" index="0" disallow="pedestrian tram rail_urban rail rail_electric rail_fast ship" speed="36.11" length="51.22" width="3.50" shape="-594.75,-795.74 -589.82,-823.24 -585.97,-846.20"/>
    </edge>
    <edge id=":34_0" function="internal">
        <lane id=":34_0_0" index="0" disallow="pedestrian tram rail_urban rail rail_electric rail_fast ship" speed="16.34" length="39.51" width="3.50" shape="-590.43,-742.64 -591.73,-741.02 -593.98,-737.53 -596.19,-733.41 -598.55,-728.20 -601.17,-721.41 -603.95,-713.02 -605.86,-706.53"/>
    </edge>
    <edge id=":34_1" function="internal">
        <lane id=":34_1_0" index="0" disallow="pedestrian tram rail_urban rail rail_electric rail_fast ship" speed="36.11" length="47.65" width="3.50" shape="-593.53,-752.56 -603.32,-715.72 -605.86,-706.53"/>
    </edge>
    <edge id=":34_2" function="internal">
        <lane id=":34_2_0" index="0" disallow="pedestrian tram rail_urban rail rail_electric rail_fast ship" speed="36.11" length="47.48" width="3.50" shape="-615.97,-709.36 -613.44,-718.53 -603.69,-755.22"/>
        <lane id=":34_2_1" index="1" disallow="pedestrian tram rail_urban rail rail_electric rail_fast ship" speed="36.11" length="47.53" width="3.50" shape="-612.60,-708.42 -610.06,-717.61 -600.30,-754.33"/>
        <lane id=":34_2_2" index="2" disallow="pedestrian tram rail_urban rail rail_electric rail_fast ship" speed="36.11" length="47.59" width="3.50" shape="-609.23,-707.48 -606.69,-716.66 -596.91,-753.45"/>
    </edge>
    <edge id=":35_0" function="internal">
        <lane id=":35_0_0" index="0" disallow="pedestrian tram rail_urban rail rail_electric rail_fast ship" speed="36.11" length="40.06" width="3.50" shape="-616.86,-787.29 -642.07,-806.39 -648.72,-811.57"/>
    </edge>
    <edge id=":35_1" function="internal">
        <lane id=":35_1_0" index="0" disallow="pedestrian tram rail_urban rail rail_electric rail_fast ship" speed="17.12" length="33.88" width="3.50" shape="-644.38,-817.06 -638.57,-812.68 -633.39,-809.20 -628.46,-806.31 -624.27,-804.24 -620.40,-802.71 -616.91,-801.70 -614.76,-801.33"/>
    </edge>
    <edge id=":35_2" function="internal">
        <lane id=":35_2_0" index="0" disallow="pedestrian tram rail_urban rail rail_electric rail_fast ship" speed="36.11" length="39.88" width="3.39" shape="-644.38,-817.06 -637.76,-811.90 -612.66,-792.89"/>
        <lane id=":35_2_1" index="1" disallow="pedestrian tram rail_urban rail rail_electric rail_fast ship" speed="36.11" length="39.97" width="3.50" shape="-646.55,-814.31 -639.90,-809.14 -614.76,-790.09"/>
    </edge>
    <edge id=":36_0" function="internal">
        <lane id=":36_0_0" index="0" disallow="pedestrian tram rail_urban rail rail_electric rail_fast ship" speed="36.11" length="27.27" width="3.50" shape="-584.21,-764.78 -590.90,-769.47 -599.44,-774.28 -602.44,-776.30 -606.96,-779.75"/>
    </edge>
    <edge id=":36_1" function="internal">
        <lane id=":36_1_0" index="0" disallow="pedestrian tram rail_urban rail rail_electric rail_fast ship" speed="13.52" length="27.78" width="2.94" shape="-582.14,-767.61 -590.78,-774.18 -594.33,-777.30 -596.13,-779.21 -597.03,-780.49 -597.41,-781.47 -596.19,-788.32"/>
    </edge>
    <edge id=":36_2" function="internal">
        <lane id=":36_2_0" index="0" disallow="pedestrian tram rail_urban rail rail_electric rail_fast ship" speed="36.11" length="20.04" width="3.49" shape="-586.76,-781.82 -590.03,-766.64 -591.11,-762.26"/>
        <lane id=":36_2_1" index="1" disallow="pedestrian tram rail_urban rail rail_electric rail_fast ship" speed="36.11" length="20.40" width="3.49" shape="-590.20,-782.43 -590.80,-778.52 -590.67,-775.93 -589.90,-770.27 -589.87,-768.19 -591.11,-762.26"/>
    </edge>
    <edge id=":36_4" function="internal">
        <lane id=":36_4_0" index="0" disallow="pedestrian tram rail_urban rail rail_electric rail_fast ship" speed="8.23" length="20.22" width="3.50" shape="-593.65,-783.04 -594.51,-779.26 -595.29,-777.31 -596.05,-776.14 -596.53,-775.64 -597.09,-775.22 -597.73,-774.94 -598.41,-774.80 -599.11,-774.81 -600.46,-775.17 -601.70,-775.81 -606.96,-779.75"/>
    </edge>
    <edge id=":36_5" function="internal">
        <lane id=":36_5_0" index="0" disallow="pedestrian tram rail_urban rail rail_electric rail_fast ship" speed="4.93" length="6.32" width="2.94" shape="-602.69,-785.30 -597.99,-782.07 -597.37,-782.02"/>
    </edge>
    <edge id=":36_6" function="internal">
        <lane id=":36_6_0" index="0" disallow="pedestrian tram rail_urban rail rail_electric rail_fast ship" speed="12.95" length="26.69" width="3.49" shape="-604.83,-782.52 -596.60,-776.00 -593.91,-773.44 -592.16,-771.44 -590.97,-769.68 -590.31,-768.23 -590.09,-767.19 -591.11,-762.26"/>
    </edge>
    <edge id=":36_7" function="internal">
        <lane id=":36_7_0" index="0" disallow="pedestrian tram rail_urban rail rail_electric rail_fast ship" speed="10.79" length="18.30" width="3.50" shape="-601.37,-764.50 -600.11,-770.20 -600.12,-771.88 -600.50,-773.52 -601.29,-775.00 -602.41,-776.25 -606.96,-779.75"/>
    </edge>
    <edge id=":36_8" function="internal">
        <lane id=":36_8_0" index="0" disallow="pedestrian tram rail_urban rail rail_electric rail_fast ship" speed="36.11" length="24.89" width="2.94" shape="-597.95,-763.75 -596.69,-769.76 -596.78,-772.32 -597.61,-778.42 -597.62,-780.47 -596.19,-788.32"/>
        <lane id=":36_8_1" index="1" disallow="pedestrian tram rail_urban rail rail_electric rail_fast ship" speed="36.11" length="26.35" width="2.94" shape="-594.53,-763.00 -593.40,-768.51 -593.60,-770.08 -594.29,-772.09 -596.81,-777.33 -597.31,-778.84 -597.54,-780.41 -596.19,-788.32"/>
    </edge>
    <edge id=":37_0" function="internal">
        <lane id=":37_0_0" index="0" disallow="pedestrian tram rail_urban rail rail_electric rail_fast ship" speed="22.92" length="5.06" width="3.50" shape="-578.06,-748.35 -573.27,-749.99"/>
    </edge>
    <edge id=":37_1" function="internal">
        <lane id=":37_1_0" index="0" disallow="pedestrian tram rail_urban rail rail_electric rail_fast ship" speed="36.11" length="16.59" width="3.50" shape="-560.30,-745.81 -573.06,-756.42"/>
        <lane id=":37_1_1" index="1" disallow="pedestrian tram rail_urban rail rail_electric rail_fast ship" speed="36.11" length="16.71" width="3.50" shape="-558.09,-748.52 -570.94,-759.20"/>
    </edge>

    <edge id="76902" from="37" to="34" priority="3" type="highway.residential" spreadType="center" length="18.31">
        <lane id="76902_0" index="0" disallow="pedestrian tram rail_urban rail rail_electric rail_fast ship" speed="36.11" length="18.31" width="3.50" customShape="1" shape="-573.27,-749.99 -582.82,-747.98 -591.19,-746.22"/>
    </edge>
    <edge id="76948" from="35" to="9" priority="3" type="highway.residential" spreadType="center" length="33.85" shape="-627.07,-800.29 -675.62,-832.12">
        <lane id="76948_0" index="0" disallow="pedestrian tram rail_urban rail rail_electric rail_fast ship" speed="36.11" length="33.85" width="3.50" customShape="1" shape="-648.72,-811.57 -653.08,-815.02 -665.85,-824.94 -675.62,-832.12"/>
    </edge>
    <edge id="76950" from="20" to="35" priority="3" type="highway.residential" spreadType="center" length="34.05" shape="-672.58,-836.39 -624.07,-804.59">
        <lane id="76950_0" index="0" disallow="pedestrian tram rail_urban rail rail_electric rail_fast ship" speed="36.11" length="34.22" width="3.50" customShape="1" shape="-671.57,-837.83 -661.66,-830.54 -648.78,-820.53 -644.38,-817.06"/>
        <lane id="76950_1" index="1" disallow="pedestrian tram rail_urban rail rail_electric rail_fast ship" speed="36.11" length="34.05" width="3.50" customShape="1" shape="-673.61,-834.98 -663.76,-827.74 -650.93,-817.78 -646.55,-814.31"/>
    </edge>
    <edge id="77021" from="35" to="33" priority="3" type="highway.residential" spreadType="center" length="17.32">
        <lane id="77021_0" index="0" disallow="pedestrian tram rail_urban rail rail_electric rail_fast ship" speed="36.11" length="17.32" width="3.50" customShape="1" shape="-614.37,-799.74 -607.00,-801.54 -597.54,-803.85"/>
    </edge>
    <edge id="77170" from="37" to="36" priority="3" type="highway.residential" spreadType="center" length="13.94">
        <lane id="77170_0" index="0" disallow="pedestrian tram rail_urban rail rail_electric rail_fast ship" speed="36.11" length="13.94" width="3.50" customShape="1" shape="-573.06,-756.42 -575.71,-758.43 -575.81,-758.51 -581.53,-762.78 -584.21,-764.78"/>
        <lane id="77170_1" index="1" disallow="pedestrian tram rail_urban rail rail_electric rail_fast ship" speed="36.11" length="14.01" width="3.50" customShape="1" shape="-570.94,-759.20 -573.59,-761.22 -573.70,-761.30 -579.43,-765.58 -582.14,-767.61"/>
    </edge>
    <edge id="77227" from="33" to="3" priority="3" type="highway.residential" spreadType="center" length="47.80" shape="-592.64,-816.86 -580.00,-893.61">
        <lane id="77227_0" index="0" disallow="pedestrian tram rail_urban rail rail_electric rail_fast ship" speed="36.11" length="47.80" width="3.50" customShape="1" shape="-585.97,-846.20 -583.48,-862.61 -581.70,-876.59 -580.00,-893.61"/>
    </edge>
    <edge id="77230" from="16" to="33" priority="3" type="highway.residential" spreadType="center" length="48.03" shape="-573.03,-892.95 -585.79,-815.42">
        <lane id="77230_0" index="0" disallow="pedestrian tram rail_urban rail rail_electric rail_fast ship" speed="36.11" length="48.49" width="3.50" customShape="1" shape="-569.55,-892.65 -571.27,-875.36 -573.08,-861.18 -575.60,-844.55"/>
        <lane id="77230_1" index="1" disallow="pedestrian tram rail_urban rail rail_electric rail_fast ship" speed="36.11" length="48.23" width="3.50" customShape="1" shape="-573.03,-892.95 -574.75,-875.76 -576.55,-861.65 -579.06,-845.11"/>
        <lane id="77230_2" index="2" disallow="pedestrian tram rail_urban rail rail_electric rail_fast ship" speed="36.11" length="48.03" width="3.50" customShape="1" shape="-576.52,-893.30 -578.23,-876.19 -580.02,-862.14 -582.51,-845.66"/>
    </edge>
    <edge id="77250" from="36" to="35" priority="3" type="highway.residential" spreadType="center" length="12.44" shape="-595.95,-773.27 -627.30,-800.46">
        <lane id="77250_0" index="0" disallow="pedestrian tram rail_urban rail rail_electric rail_fast ship" speed="36.11" length="12.44" width="3.50" customShape="1" shape="-606.96,-779.75 -609.85,-781.95 -616.66,-787.14 -616.76,-787.22 -616.86,-787.29"/>
    </edge>
    <edge id="77256" from="35" to="36" priority="3" type="highway.residential" spreadType="center" length="12.49" shape="-623.90,-804.39 -592.39,-777.04">
        <lane id="77256_0" index="0" disallow="pedestrian tram rail_urban rail rail_electric rail_fast ship" speed="36.11" length="12.53" width="3.39" customShape="1" shape="-612.66,-792.89 -612.56,-792.82 -612.45,-792.74 -605.61,-787.52 -602.69,-785.30"/>
        <lane id="77256_1" index="1" disallow="pedestrian tram rail_urban rail rail_electric rail_fast ship" speed="36.11" length="12.49" width="3.50" customShape="1" shape="-614.76,-790.09 -614.66,-790.02 -614.56,-789.94 -607.73,-784.74 -604.83,-782.52"/>
    </edge>
    <edge id="77595" from="36" to="34" priority="3" type="highway.residential" spreadType="center" length="10.00" shape="-593.11,-774.53 -597.31,-733.78">
        <lane id="77595_0" index="0" disallow="pedestrian tram rail_urban rail rail_electric rail_fast ship" speed="36.11" length="10.00" width="3.49" customShape="1" shape="-591.11,-762.26 -591.84,-759.35 -593.46,-752.82 -593.50,-752.68 -593.53,-752.56"/>
    </edge>
    <edge id="77603" from="34" to="36" priority="3" type="highway.residential" spreadType="center" length="9.57" shape="-604.27,-734.50 -599.97,-775.83">
        <lane id="77603_0" index="0" disallow="pedestrian tram rail_urban rail rail_electric rail_fast ship" speed="36.11" length="9.57" width="3.50" customShape="1" shape="-603.69,-755.22 -603.65,-755.34 -603.62,-755.46 -602.03,-761.88 -601.37,-764.50"/>
        <lane id="77603_1" index="1" disallow="pedestrian tram rail_urban rail rail_electric rail_fast ship" speed="36.11" length="9.71" width="3.50" customShape="1" shape="-600.30,-754.33 -600.27,-754.45 -600.24,-754.58 -598.63,-761.03 -597.95,-763.75"/>
        <lane id="77603_2" index="2" disallow="pedestrian tram rail_urban rail rail_electric rail_fast ship" speed="36.11" length="9.84" width="3.50" customShape="1" shape="-596.91,-753.45 -596.88,-753.57 -596.85,-753.69 -595.23,-760.19 -594.53,-763.00"/>
    </edge>
    <edge id="77656" from="34" to="6" priority="3" type="highway.residential" spreadType="center" length="53.76" shape="-597.33,-733.61 -615.32,-653.70">
        <lane id="77656_0" index="0" disallow="pedestrian tram rail_urban rail rail_electric rail_fast ship" speed="36.11" length="53.76" width="3.50" customShape="1" shape="-605.86,-706.53 -606.39,-704.62 -609.03,-694.51 -610.82,-686.24 -612.63,-675.95 -614.07,-665.60 -615.32,-653.70"/>
    </edge>
    <edge id="77659" from="18" to="34" priority="3" type="highway.residential" spreadType="center" length="54.41" shape="-622.29,-654.38 -604.08,-735.43">
        <lane id="77659_0" index="0" disallow="pedestrian tram rail_urban rail rail_electric rail_fast ship" speed="36.11" length="55.65" width="3.50" customShape="1" shape="-625.78,-654.69 -624.48,-667.00 -622.98,-677.72 -621.11,-688.38 -619.24,-696.96 -616.52,-707.40 -615.97,-709.38"/>
        <lane id="77659_1" index="1" disallow="pedestrian tram rail_urban rail rail_electric rail_fast ship" speed="36.11" length="55.00" width="3.50" customShape="1" shape="-622.29,-654.38 -621.01,-666.53 -619.53,-677.13 -617.68,-687.67 -615.84,-696.16 -613.14,-706.48 -612.59,-708.43"/>
        <lane id="77659_2" index="2" disallow="pedestrian tram rail_urban rail rail_electric rail_fast ship" speed="36.11" length="54.41" width="3.50" customShape="1" shape="-618.81,-654.01 -617.54,-666.05 -616.09,-676.52 -614.26,-686.93 -612.44,-695.32 -609.77,-705.54 -609.23,-707.48"/>
    </edge>
    <edge id="77672" from="36" to="33" priority="3" type="highway.residential" spreadType="center" length="7.56" shape="-596.32,-774.72 -592.37,-816.76">
        <lane id="77672_0" index="0" disallow="pedestrian tram rail_urban rail rail_electric rail_fast ship" speed="36.11" length="7.56" width="2.94" customShape="1" shape="-596.19,-788.32 -596.08,-788.87 -594.80,-795.50 -594.78,-795.62 -594.75,-795.74"/>
    </edge>
    <edge id="77680" from="33" to="36" priority="3" type="highway.residential" spreadType="center" length="12.25" shape="-585.68,-816.13 -589.73,-773.50">
        <lane id="77680_0" index="0" disallow="pedestrian tram rail_urban rail rail_electric rail_fast ship" speed="36.11" length="12.25" width="3.50" customShape="1" shape="-584.43,-793.85 -584.45,-793.72 -584.47,-793.59 -585.78,-786.87 -586.76,-781.82"/>
        <lane id="77680_1" index="1" disallow="pedestrian tram rail_urban rail rail_electric rail_fast ship" speed="36.11" length="12.27" width="3.50" customShape="1" shape="-587.87,-794.48 -587.89,-794.35 -587.92,-794.22 -589.21,-787.53 -590.20,-782.43"/>
        <lane id="77680_2" index="2" disallow="pedestrian tram rail_urban rail rail_electric rail_fast ship" speed="36.11" length="12.30" width="3.50" customShape="1" shape="-591.31,-795.11 -591.33,-794.98 -591.36,-794.86 -592.65,-788.20 -593.65,-783.04"/>
    </edge>
    <edge id="80271" from="38" to="37" priority="3" type="highway.residential" spreadType="center" length="25.53">
        <lane id="80271_0" index="0" disallow="pedestrian tram rail_urban rail rail_electric rail_fast ship" speed="36.11" length="25.57" width="3.50" customShape="1" shape="-540.63,-729.48 -548.72,-735.99 -560.30,-745.81"/>
        <lane id="80271_1" index="1" disallow="pedestrian tram rail_urban rail rail_electric rail_fast ship" speed="36.11" length="25.53" width="3.50" customShape="1" shape="-538.45,-732.21 -546.52,-738.71 -558.09,-748.52"/>
    </edge>
    <edge id="80273" from="38" to="37" priority="3" type="highway.residential" spreadType="center" length="42.47">
        <lane id="80273_0" index="0" disallow="pedestrian tram rail_urban rail rail_electric rail_fast ship" speed="36.11" length="42.47" width="3.50" customShape="1" shape="-540.63,-729.48 -547.28,-734.41 -553.30,-738.47 -558.63,-741.66 -563.23,-744.04 -567.51,-745.90 -571.44,-747.22 -574.97,-748.02 -578.06,-748.35"/>
    </edge>

    <junction id="16" type="dead_end" x="-573.03" y="-892.95" incLanes="" intLanes="" shape="-578.26,-893.47 -567.81,-892.43" rightOfWay="edgePriority"/>
    <junction id="18" type="dead_end" x="-622.29" y="-654.38" incLanes="" intLanes="" shape="-617.07,-653.83 -627.51,-654.93" rightOfWay="edgePriority"/>
    <junction id="20" type="dead_end" x="-672.58" y="-836.39" incLanes="" intLanes="" shape="-674.65,-833.57 -670.51,-839.21" rightOfWay="edgePriority"/>
    <junction id="3" type="dead_end" x="-580.00" y="-893.61" incLanes="77227_0" intLanes="" shape="-581.74,-893.78 -578.26,-893.43" rightOfWay="edgePriority"/>
    <junction id="33" type="priority" x="-590.91" y="-816.62" incLanes="77230_0 77230_1 77230_2 77021_0 77672_0" intLanes=":33_0_0 :33_0_1 :33_0_2 :33_3_0 :33_4_0" shape="-573.86,-844.37 -587.70,-846.46 -589.66,-834.25 -591.52,-824.19 -593.28,-816.29 -594.94,-810.55 -596.50,-806.97 -597.95,-805.54 -597.12,-802.15 -596.06,-801.70 -595.82,-800.87 -595.76,-799.65 -595.88,-798.03 -596.20,-796.01 -582.71,-793.53">
        <request index="0" response="00000" foes="00000" cont="0"/>
        <request index="1" response="00000" foes="00000" cont="0"/>
        <request index="2" response="00000" foes="00000" cont="0"/>
        <request index="3" response="10000" foes="10000" cont="0"/>
        <request index="4" response="00000" foes="01000" cont="0"/>
    </junction>
    <junction id="34" type="priority" x="-599.05" y="-733.96" incLanes="76902_0 77595_0 77659_0 77659_1 77659_2" intLanes=":34_0_0 :34_1_0 :34_2_0 :34_2_1 :34_2_2" shape="-590.83,-744.51 -591.55,-747.93 -592.23,-748.26 -592.35,-748.83 -592.33,-749.66 -592.16,-750.75 -591.84,-752.12 -605.38,-755.66 -617.65,-709.83 -604.17,-706.06 -600.86,-717.65 -597.98,-727.17 -595.54,-734.61 -593.53,-739.98 -591.96,-743.28">
        <request index="0" response="00010" foes="00010" cont="0"/>
        <request index="1" response="00000" foes="00001" cont="0"/>
        <request index="2" response="00000" foes="00000" cont="0"/>
        <request index="3" response="00000" foes="00000" cont="0"/>
        <request index="4" response="00000" foes="00000" cont="0"/>
    </junction>
    <junction id="35" type="priority" x="-626.16" y="-801.78" incLanes="77250_0 76950_0 76950_1" intLanes=":35_0_0 :35_1_0 :35_2_0 :35_2_1" shape="-617.91,-785.89 -611.64,-794.25 -613.85,-796.13 -614.41,-796.84 -614.62,-797.40 -614.47,-797.80 -613.96,-798.04 -614.79,-801.44 -617.06,-801.55 -620.33,-802.75 -624.59,-805.03 -629.84,-808.41 -636.07,-812.88 -643.30,-818.43 -649.81,-810.20">
        <request index="0" response="0000" foes="0000" cont="0"/>
        <request index="1" response="0000" foes="0000" cont="0"/>
        <request index="2" response="0000" foes="0000" cont="0"/>
        <request index="3" response="0000" foes="0000" cont="0"/>
    </junction>
    <junction id="36" type="priority" x="-594.86" y="-774.64" incLanes="77170_0 77170_1 77680_0 77680_1 77680_2 77256_0 77256_1 77603_0 77603_1 77603_2" intLanes=":36_0_0 :36_1_0 :36_2_0 :36_2_1 :36_4_0 :36_5_0 :36_6_0 :36_7_0 :36_8_0 :36_8_1" shape="-585.24,-763.37 -581.11,-769.02 -582.76,-770.52 -584.01,-772.25 -584.86,-774.21 -585.32,-776.41 -585.37,-778.84 -585.03,-781.51 -595.37,-783.35 -594.71,-788.25 -597.68,-788.38 -598.48,-786.33 -599.08,-785.86 -599.81,-785.75 -600.67,-786.01 -601.66,-786.63 -608.03,-778.36 -605.96,-776.51 -604.38,-774.50 -603.31,-772.33 -602.73,-770.01 -602.66,-767.52 -603.08,-764.88 -589.41,-761.88 -588.52,-763.77 -587.88,-764.19 -587.13,-764.27 -586.25,-763.99">
        <request index="0" response="1110011100" foes="1111011100" cont="0"/>
        <request index="1" response="1100111100" foes="1100111100" cont="0"/>
        <request index="2" response="0000001000" foes="0001001011" cont="0"/>
        <request index="3" response="0000000000" foes="0001000111" cont="0"/>
        <request index="4" response="1110000000" foes="1111000011" cont="0"/>
        <request index="5" response="1100000000" foes="1100000010" cont="0"/>
        <request index="6" response="1100011101" foes="1100011101" cont="0"/>
        <request index="7" response="0000000000" foes="0000010001" cont="0"/>
        <request index="8" response="1000000000" foes="1001110011" cont="0"/>
        <request index="9" response="0000000000" foes="0101110011" cont="0"/>
    </junction>
    <junction id="37" type="priority" x="-578.63" y="-753.88" incLanes="80273_0 80271_0 80271_1" intLanes=":37_0_0 :37_1_0 :37_1_1" shape="-578.03,-746.59 -578.10,-750.10 -561.40,-744.45 -556.98,-749.88 -569.88,-760.59 -574.12,-755.03 -572.49,-753.47 -572.23,-752.86 -572.33,-752.36 -572.80,-751.97 -573.63,-751.70 -572.91,-748.28">
        <request index="0" response="000" foes="000" cont="0"/>
        <request index="1" response="000" foes="000" cont="0"/>
        <request index="2" response="000" foes="000" cont="0"/>
    </junction>
    <junction id="38" type="dead_end" x="-540.10" y="-730.17" incLanes="" intLanes="" shape="-539.57,-730.87 -541.66,-728.06 -537.35,-733.58 -541.74,-728.13"/>
    <junction id="6" type="dead_end" x="-615.32" y="-653.70" incLanes="77656_0" intLanes="" shape="-613.58,-653.52 -617.06,-653.89" rightOfWay="edgePriority"/>
    <junction id="9" type="dead_end" x="-675.62" y="-832.12" incLanes="76948_0" intLanes="" shape="-676.66,-830.71 -674.58,-833.53" rightOfWay="edgePriority"/>

    <connection from="76902" to="77656" fromLane="0" toLane="0" contPos="-4.00" shape="-582.95,-747.96 -584.44,-747.50 -586.28,-746.54 -587.94,-745.29 -589.78,-743.46 -591.73,-741.02 -593.98,-737.53 -596.19,-733.41 -598.55,-728.20 -601.17,-721.41 -603.95,-713.02 -605.86,-706.53" via=":34_0_0" dir="s" state="m"/>
    <connection from="76950" to="77021" fromLane="0" toLane="0" contPos="-4.00" shape="-644.38,-817.06 -638.57,-812.68 -633.39,-809.20 -628.46,-806.31 -624.27,-804.24 -620.40,-802.71 -616.91,-801.70 -613.83,-801.17 -611.24,-801.02 -608.65,-801.21 -607.12,-801.51" via=":35_1_0" dir="r" state="M"/>
    <connection from="76950" to="77256" fromLane="0" toLane="0" contPos="-4.00" shape="-644.38,-817.06 -637.76,-811.90 -612.66,-792.89" via=":35_2_0" dir="s" state="M"/>
    <connection from="76950" to="77256" fromLane="1" toLane="1" contPos="-4.00" shape="-646.55,-814.31 -639.90,-809.14 -614.76,-790.09" via=":35_2_1" dir="s" state="M"/>