<routes>
	<vehicle depart="0.1" departLane="0" departPos="59.24034451926718" departSpeed="0.0" id="30" type="passenger">
		<route edges="105926 105807"/>
	</vehicle>
	<vehicle depart="0.1" departLane="0" departPos="8.602365358863304" departSpeed="0.46878226" id="31" type="passenger">
		<route edges=":25_8 106030"/>
	</vehicle>
	<vehicle depart="0.1" departLane="0" departPos="51.73884649867837" departSpeed="0.0" id="36" type="passenger">
		<route edges="105926 105807"/>
	</vehicle>
	<vehicle depart="0.1" departLane="0" departPos="27.355118889104446" departSpeed="2.1748368" id="38" type="passenger">
		<route edges="106031 105927"/>
	</vehicle>
	<vehicle depart="0.1" departLane="0" departPos="27.830122269534435" departSpeed="10.458824" id="310" type="passenger">
		<route edges=":25_0 106030 106027"/>
	</vehicle>
	<vehicle depart="0.1" departLane="0" departPos="2.5" departSpeed="0.16650193" id="311" type="passenger">
		<route edges=":25_7 105811"/>
	</vehicle>
	<vehicle depart="0.1" departLane="0" departPos="17.49764975014527" departSpeed="7.2640871" id="313" type="passenger">
		<route edges=":25_0 106030 106027"/>
	</vehicle>
	<vehicle depart="0.1" departLane="0" departPos="63.66020980453023" departSpeed="1.2782435" id="318" type="passenger">
		<route edges="105808 105811"/>
	</vehicle>
	<vehicle depart="0.1" departLane="0" departPos="55.69510036193793" departSpeed="4.8704015" id="332" type="passenger">
		<route edges="105810 105807"/>
	</vehicle>
	<vehicle depart="0.1" departLane="0" departPos="25.984574184547444" departSpeed="3.3698346" id="334" type="passenger">
		<route edges="105810 106030"/>
	</vehicle>
</routes>
