<routes>
	<vehicle depart="0.1" departLane="0" departPos="1.0" departSpeed="6.8796591" id="375" type="bicycle">
		<route edges=":52_1 146 143"/>
	</vehicle>
	<vehicle depart="0.1" departLane="0" departPos="36.401142127931536" departSpeed="6.8867612" id="379" type="bicycle">
		<route edges="342 345 140"/>
	</vehicle>
	<vehicle depart="0.1" departLane="0" departPos="57.58816633076169" departSpeed="0.0" id="311" type="passenger">
		<route edges="280 146"/>
	</vehicle>
	<vehicle depart="0.1" departLane="0" departPos="50.50747257746202" departSpeed="0.0" id="314" type="passenger">
		<route edges="280 146"/>
	</vehicle>
	<vehicle depart="0.1" departLane="0" departPos="71.15553905310504" departSpeed="0.0" id="317" type="passenger">
		<route edges="280 146"/>
	</vehicle>
	<vehicle depart="0.1" departLane="0" departPos="64.37183997298867" departSpeed="0.0" id="320" type="passenger">
		<route edges="280 146"/>
	</vehicle>
	<vehicle depart="0.1" departLane="0" departPos="25.243974874841534" departSpeed="0.057771615" id="323" type="passenger">
		<route edges="965 341"/>
	</vehicle>
	<vehicle depart="0.1" departLane="0" departPos="164.6750212051433" departSpeed="0.0367559" id="325" type="passenger">
		<route edges="345 140"/>
	</vehicle>
	<vehicle depart="0.1" departLane="0" departPos="43.0186889877091" departSpeed="8.6216158e-05" id="326" type="passenger">
		<route edges="280 146"/>
	</vehicle>
	<vehicle depart="0.1" departLane="0" departPos="18.129797654758004" departSpeed="0.26290145" id="333" type="passenger">
		<route edges="965 341"/>
	</vehicle>
	<vehicle depart="0.1" departLane="0" departPos="35.509662087709685" departSpeed="0.00048044685" id="335" type="passenger">
		<route edges="280 146"/>
	</vehicle>
	<vehicle depart="0.1" departLane="0" departPos="157.6585383664676" departSpeed="0.34076828" id="336" type="passenger">
		<route edges="345 140"/>
	</vehicle>
	<vehicle depart="0.1" departLane="0" departPos="175.62523724418187" departSpeed="0.011149048" id="337" type="passenger">
		<route edges="146 143"/>
	</vehicle>
	<vehicle depart="0.1" departLane="0" departPos="148.79374480234512" departSpeed="1.6982495" id="343" type="passenger">
		<route edges="345 140"/>
	</vehicle>
	<vehicle depart="0.1" departLane="0" departPos="168.63158898907056" departSpeed="0.08843681" id="346" type="passenger">
		<route edges="146 143"/>
	</vehicle>
	<vehicle depart="0.1" departLane="0" departPos="42.767849730191706" departSpeed="14.812337" id="347" type="passenger">
		<route edges="344 341"/>
	</vehicle>
	<vehicle depart="0.1" departLane="0" departPos="161.17793198377052" departSpeed="0.4818791" id="349" type="passenger">
		<route edges="146 143"/>
	</vehicle>
	<vehicle depart="0.1" departLane="0" departPos="136.47196994159472" departSpeed="4.2840382" id="350" type="passenger">
		<route edges="345 140"/>
	</vehicle>
	<vehicle depart="0.1" departLane="0" departPos="152.19222245684367" departSpeed="1.5163721" id="352" type="passenger">
		<route edges="146 143"/>
	</vehicle>
	<vehicle depart="0.1" departLane="0" departPos="10.749234194170237" departSpeed="0.57233826" id="354" type="passenger">
		<route edges="965 341"/>
	</vehicle>
	<vehicle depart="0.1" departLane="0" departPos="18.19296883710976" departSpeed="11.751909" id="355" type="passenger">
		<route edges="344 966"/>
	</vehicle>
	<vehicle depart="0.1" departLane="0" departPos="141.50139298189794" departSpeed="3.0758691" id="356" type="passenger">
		<route edges="146 143"/>
	</vehicle>
	<vehicle depart="0.1" departLane="0" departPos="128.64454475380182" departSpeed="4.8130785" id="357" type="passenger">
		<route edges="146 143"/>
	</vehicle>
	<vehicle depart="0.1" departLane="0" departPos="119.83419506268508" departSpeed="7.3438352" id="358" type="passenger">
		<route edges="345 140"/>
	</vehicle>
	<vehicle depart="0.1" departLane="0" departPos="18.812129346114798" departSpeed="0.0073022302" id="360" type="passenger">
		<route edges="280 146"/>
	</vehicle>
	<vehicle depart="0.1" departLane="0" departPos="113.76653746753497" departSpeed="6.4518917" id="362" type="passenger">
		<route edges="146 143"/>
	</vehicle>
	<vehicle depart="0.1" departLane="0" departPos="97.37299891985418" departSpeed="7.7796573" id="365" type="passenger">
		<route edges="146 143"/>
	</vehicle>
	<vehicle depart="0.1" departLane="0" departPos="97.9623841519331" departSpeed="10.643401" id="366" type="passenger">
		<route edges="345 140"/>
	</vehicle>
	<vehicle depart="0.1" departLane="0" departPos="79.30164517020025" departSpeed="9.2082905" id="370" type="passenger">
		<route edges="146 143"/>
	</vehicle>
	<vehicle depart="0.1" departLane="0" departPos="12.007687154940351" departSpeed="0.022086435" id="371" type="passenger">
		<route edges="280 146"/>
	</vehicle>
	<vehicle depart="0.1" departLane="0" departPos="60.74254456305987" departSpeed="9.9346419" id="373" type="passenger">
		<route edges="146 143"/>
	</vehicle>
	<vehicle depart="0.1" departLane="0" departPos="12.195392703299907" departSpeed="11.579988" id="374" type="passenger">
		<route edges="141 144 147 330"/>
	</vehicle>
	<vehicle depart="0.1" departLane="0" departPos="20.476381828532038" departSpeed="17.30667" id="376" type="passenger">
		<route edges="146 143"/>
	</vehicle>
	<vehicle depart="0.1" departLane="0" departPos="41.25035090734429" departSpeed="11.616996" id="383" type="passenger">
		<route edges="329 146 143"/>
	</vehicle>
	<vehicle depart="0.1" departLane="0" departPos="21.72927939073026" departSpeed="7.8534735" id="388" type="passenger">
		<route edges="329 146 143"/>
	</vehicle>
	<vehicle depart="0.1" departLane="0" departPos="9.208977515810284" departSpeed="3.850798" id="389" type="passenger">
		<route edges="342 345 140"/>
	</vehicle>
	<vehicle depart="0.1" departLane="0" departPos="9.6656676764979" departSpeed="4.241856" id="390" type="passenger">
		<route edges="329 146 143"/>
	</vehicle>
	<vehicle depart="0.1" departLane="0" departPos="5.170648728894898" departSpeed="0.052280141" id="380" type="motorcycle">
		<route edges="280 146"/>
	</vehicle>
	<vehicle depart="0.1" departLane="0" departPos="28.26601172774274" departSpeed="0.0020988862" id="348" type="truck">
		<route edges="280 146"/>
	</vehicle>
	<vehicle depart="0.1" departLane="0" departPos="19.98617444030035" departSpeed="9.2467682" id="377" type="truck">
		<route edges=":54_5 345 140"/>
	</vehicle>
	<vehicle depart="0.1" departLane="0" departPos="22.017704919017127" departSpeed="5.040813" id="386" type="truck">
		<route edges="342 345 140"/>
	</vehicle>
</routes>
