<!-- generated on Wed Feb 10 12:29:05 2021 by Eclipse SUMO netconvert Version 1.8.0
<configuration xmlns:xsi="http://www.w3.org/2001/XMLSchema-instance" xsi:noNamespaceSchemaLocation="http://sumo.dlr.de/xsd/netconvertConfiguration.xsd">

    <input>
        <node-files value="./converted_scenarios/SUMO/DEU_Lohmar-35_1_I-1-1/DEU_Lohmar-35_1_I-1-1.nod.xml"/>
        <edge-files value="./converted_scenarios/SUMO/DEU_Lohmar-35_1_I-1-1/DEU_Lohmar-35_1_I-1-1.edg.xml"/>
        <connection-files value="./converted_scenarios/SUMO/DEU_Lohmar-35_1_I-1-1/DEU_Lohmar-35_1_I-1-1.con.xml"/>
        <tllogic-files value="./converted_scenarios/SUMO/DEU_Lohmar-35_1_I-1-1/DEU_Lohmar-35_1_I-1-1.tll.xml"/>
        <type-files value="/home/zen/commonroad-interactive-benchmarks/install/commonroad-map-tool/crmapconverter/sumo_map/templates/DEU.typ.xml"/>
    </input>

    <output>
        <output-file value="./converted_scenarios/SUMO/DEU_Lohmar-35_1_I-1-1/DEU_Lohmar-35_1_I-1-1.net.xml"/>
    </output>

    <processing>
        <geometry.remove.keep-edges.explicit value="true"/>
        <geometry.avoid-overlap value="true"/>
        <offset.disable-normalization value="true"/>
    </processing>

    <junctions>
        <no-turnarounds value="true"/>
        <junctions.internal-link-detail value="20"/>
    </junctions>

    <report>
        <aggregate-warnings value="5"/>
    </report>

    <random_number>
        <seed value="1234"/>
    </random_number>

</configuration>
--><net xmlns:xsi="http://www.w3.org/2001/XMLSchema-instance" version="1.6" junctionCornerDetail="5" junctionLinkDetail="20" limitTurnSpeed="5.50" xsi:noNamespaceSchemaLocation="http://sumo.dlr.de/xsd/net_file.xsd">

    <location netOffset="0.00,0.00" convBoundary="-154.85,-335.03,131.15,-128.64" origBoundary="-154.85,-335.03,131.15,-128.64" projParameter="!"/>

    <type id="highway.bridleway" priority="1" speed="2.78" allow="pedestrian" oneway="1" width="2.00"/>
    <type id="highway.bus_guideway" priority="1" speed="27.78" allow="bus" oneway="1"/>
    <type id="highway.cycleway" priority="1" speed="8.33" allow="bicycle" oneway="0" width="1.00"/>
    <type id="highway.footway" priority="1" speed="2.78" allow="pedestrian" oneway="1" width="2.00"/>
    <type id="highway.ford" priority="1" speed="2.78" allow="army" oneway="0"/>
    <type id="highway.living_street" priority="2" speed="2.78" disallow="tram rail_urban rail rail_electric rail_fast ship" oneway="0"/>
    <type id="highway.motorway" priority="14" speed="39.44" allow="private emergency authority army vip passenger hov taxi bus coach delivery truck trailer motorcycle evehicle custom1 custom2" oneway="1"/>
    <type id="highway.motorway_link" priority="9" speed="22.22" allow="private emergency authority army vip passenger hov taxi bus coach delivery truck trailer motorcycle evehicle custom1 custom2" oneway="1"/>
    <type id="highway.path" priority="1" speed="2.78" allow="pedestrian bicycle" oneway="0" width="2.00"/>
    <type id="highway.pedestrian" priority="1" speed="2.78" allow="pedestrian" oneway="1" width="2.00"/>
    <type id="highway.primary" priority="12" speed="27.78" disallow="pedestrian tram rail_urban rail rail_electric rail_fast ship" oneway="0"/>
    <type id="highway.primary_link" priority="7" speed="22.22" disallow="pedestrian tram rail_urban rail rail_electric rail_fast ship" oneway="0"/>
    <type id="highway.raceway" priority="15" speed="83.33" allow="vip" oneway="0"/>
    <type id="highway.residential" priority="3" speed="13.89" disallow="pedestrian tram rail_urban rail rail_electric rail_fast ship" oneway="0"/>
    <type id="highway.secondary" priority="11" speed="27.78" disallow="pedestrian tram rail_urban rail rail_electric rail_fast ship" oneway="0"/>
    <type id="highway.secondary_link" priority="6" speed="22.22" disallow="pedestrian tram rail_urban rail rail_electric rail_fast ship" oneway="0"/>
    <type id="highway.service" priority="1" speed="5.56" allow="pedestrian delivery bicycle" oneway="0"/>
    <type id="highway.stairs" priority="1" speed="1.39" allow="pedestrian" oneway="1" width="2.00"/>
    <type id="highway.step" priority="1" speed="1.39" allow="pedestrian" oneway="1" width="2.00"/>
    <type id="highway.steps" priority="1" speed="1.39" allow="pedestrian" oneway="1" width="2.00"/>
    <type id="highway.tertiary" priority="10" speed="22.22" disallow="pedestrian tram rail_urban rail rail_electric rail_fast ship" oneway="0"/>
    <type id="highway.tertiary_link" priority="5" speed="22.22" disallow="pedestrian tram rail_urban rail rail_electric rail_fast ship" oneway="0"/>
    <type id="highway.track" priority="1" speed="5.56" allow="pedestrian motorcycle moped bicycle" oneway="0"/>
    <type id="highway.trunk" priority="13" speed="27.78" disallow="pedestrian bicycle tram rail_urban rail rail_electric rail_fast ship" oneway="0"/>
    <type id="highway.trunk_link" priority="8" speed="22.22" disallow="pedestrian bicycle tram rail_urban rail rail_electric rail_fast ship" oneway="0"/>
    <type id="highway.unclassified" priority="4" speed="13.89" disallow="pedestrian tram rail_urban rail rail_electric rail_fast ship" oneway="0"/>
    <type id="highway.unsurfaced" priority="1" speed="8.33" disallow="tram rail_urban rail rail_electric rail_fast ship" oneway="0"/>
    <type id="railway.highspeed" priority="21" speed="69.44" allow="rail_fast" oneway="1"/>
    <type id="railway.light_rail" priority="19" speed="27.78" allow="rail_urban" oneway="1"/>
    <type id="railway.preserved" priority="16" speed="27.78" allow="rail" oneway="1"/>
    <type id="railway.rail" priority="20" speed="44.44" allow="rail" oneway="1"/>
    <type id="railway.subway" priority="18" speed="27.78" allow="rail_urban" oneway="1"/>
    <type id="railway.tram" priority="17" speed="13.89" allow="tram" oneway="1"/>

    <edge id=":41_0" function="internal">
        <lane id=":41_0_0" index="0" disallow="pedestrian tram rail_urban rail rail_electric rail_fast ship" speed="36.11" length="16.43" width="3.50" shape="-30.72,-216.96 -31.76,-215.82 -37.57,-209.22 -41.35,-204.44"/>
    </edge>
    <edge id=":41_1" function="internal">
        <lane id=":41_1_0" index="0" disallow="pedestrian tram rail_urban rail rail_electric rail_fast ship" speed="8.32" length="16.80" width="3.50" shape="-30.72,-216.96 -31.71,-215.98 -33.35,-214.73 -34.69,-214.03 -36.18,-213.57 -37.78,-213.45 -39.34,-213.68 -40.78,-214.21 -42.06,-214.96 -43.66,-216.26 -45.04,-217.73"/>
    </edge>
    <edge id=":41_2" function="internal">
        <lane id=":41_2_0" index="0" disallow="pedestrian tram rail_urban rail rail_electric rail_fast ship" speed="6.78" length="10.74" width="3.50" shape="-42.37,-219.98 -41.40,-218.96 -40.32,-218.07 -39.52,-217.59 -38.65,-217.24 -37.73,-217.09 -36.80,-217.14 -35.90,-217.41 -35.07,-217.83 -33.96,-218.68 -33.29,-219.33"/>
    </edge>
    <edge id=":41_3" function="internal">
        <lane id=":41_3_0" index="0" disallow="pedestrian tram rail_urban rail rail_electric rail_fast ship" speed="9.62" length="17.03" width="3.50" shape="-42.37,-219.98 -40.81,-217.87 -39.86,-216.15 -39.17,-214.32 -38.82,-212.39 -38.83,-210.43 -39.24,-208.51 -39.97,-206.69 -40.96,-205.00 -41.35,-204.44"/>
    </edge>
    <edge id=":41_4" function="internal">
        <lane id=":41_4_0" index="0" disallow="pedestrian tram rail_urban rail rail_electric rail_fast ship" speed="8.27" length="12.37" width="3.50" shape="-44.18,-206.50 -43.80,-207.05 -43.46,-207.60 -43.15,-208.17 -42.88,-208.76 -42.65,-209.37 -42.48,-210.00 -42.37,-210.64 -42.32,-211.29 -42.33,-211.94 -42.41,-212.59 -42.54,-213.22 -42.72,-213.84 -42.96,-214.45 -43.23,-215.04 -43.54,-215.61 -43.88,-216.17 -44.25,-216.70 -44.64,-217.22 -45.04,-217.73"/>
    </edge>
    <edge id=":41_5" function="internal">
        <lane id=":41_5_0" index="0" disallow="pedestrian tram rail_urban rail rail_electric rail_fast ship" speed="36.11" length="16.84" width="3.50" shape="-44.18,-206.50 -40.25,-211.47 -34.36,-218.17 -33.29,-219.33"/>
    </edge>
    <edge id=":42_0" function="internal">
        <lane id=":42_0_0" index="0" disallow="pedestrian tram rail_urban rail rail_electric rail_fast ship" speed="6.76" length="10.43" width="3.50" shape="-100.91,-284.01 -101.90,-285.03 -102.63,-285.63 -103.45,-286.11 -104.33,-286.46 -105.27,-286.60 -106.21,-286.52 -107.12,-286.25 -107.96,-285.82 -109.11,-284.98 -109.81,-284.33"/>
    </edge>
    <edge id=":42_1" function="internal">
        <lane id=":42_1_0" index="0" disallow="pedestrian tram rail_urban rail rail_electric rail_fast ship" speed="36.11" length="16.67" width="3.50" shape="-100.91,-284.01 -104.24,-288.02 -111.36,-297.00"/>
    </edge>
    <edge id=":42_2" function="internal">
        <lane id=":42_2_0" index="0" disallow="pedestrian tram rail_urban rail rail_electric rail_fast ship" speed="36.11" length="16.47" width="3.50" shape="-108.59,-299.12 -101.53,-290.23 -98.26,-286.29"/>
    </edge>
    <edge id=":42_3" function="internal">
        <lane id=":42_3_0" index="0" disallow="pedestrian tram rail_urban rail rail_electric rail_fast ship" speed="9.08" length="16.53" width="3.50" shape="-108.58,-299.13 -107.42,-297.39 -106.54,-295.52 -106.03,-293.53 -105.94,-292.16 -106.08,-290.79 -106.43,-289.46 -107.29,-287.58 -108.45,-285.88 -109.81,-284.33"/>
    </edge>
    <edge id=":42_4" function="internal">
        <lane id=":42_4_0" index="0" disallow="pedestrian tram rail_urban rail rail_electric rail_fast ship" speed="7.66" length="11.48" width="3.50" shape="-112.31,-286.78 -111.28,-287.94 -110.44,-289.17 -109.83,-290.48 -109.61,-291.34 -109.51,-292.21 -109.55,-293.07 -109.89,-294.42 -110.51,-295.73 -111.36,-297.00"/>
    </edge>
    <edge id=":42_5" function="internal">
        <lane id=":42_5_0" index="0" disallow="pedestrian tram rail_urban rail rail_electric rail_fast ship" speed="8.30" length="16.34" width="3.50" shape="-112.31,-286.78 -111.27,-287.74 -109.59,-288.97 -108.23,-289.65 -106.74,-290.10 -105.13,-290.23 -103.55,-289.99 -102.07,-289.43 -100.80,-288.66 -99.66,-287.74 -98.26,-286.29"/>
    </edge>
    <edge id=":43_0" function="internal">
        <lane id=":43_0_0" index="0" disallow="pedestrian tram rail_urban rail rail_electric rail_fast ship" speed="7.86" length="12.31" width="3.50" shape="-71.35,-160.68 -71.99,-162.55 -72.56,-163.85 -73.27,-165.07 -74.14,-166.18 -75.21,-167.11 -76.02,-167.58 -77.36,-168.03 -78.77,-168.15 -79.68,-168.08"/>
    </edge>
    <edge id=":43_1" function="internal">
        <lane id=":43_1_0" index="0" disallow="pedestrian tram rail_urban rail rail_electric rail_fast ship" speed="13.35" length="23.30" width="3.50" shape="-71.36,-160.68 -71.82,-163.05 -71.87,-165.37 -71.54,-167.67 -70.91,-169.90 -69.77,-172.57 -68.04,-175.60 -65.66,-178.89 -63.41,-181.54"/>
    </edge>
    <edge id=":43_2" function="internal">
        <lane id=":43_2_0" index="0" disallow="pedestrian tram rail_urban rail rail_electric rail_fast ship" speed="8.89" length="22.47" width="3.50" shape="-71.36,-160.68 -71.87,-163.03 -71.97,-164.57 -71.81,-166.11 -71.32,-167.58 -70.46,-168.85 -69.31,-169.88 -67.97,-170.64 -65.77,-171.38 -63.48,-171.77 -60.40,-171.94 -57.32,-171.85"/>
    </edge>
    <edge id=":43_3" function="internal">
        <lane id=":43_3_0" index="0" disallow="pedestrian tram rail_urban rail rail_electric rail_fast ship" speed="7.48" length="15.50" width="3.50" shape="-57.51,-168.35 -60.01,-168.44 -62.46,-168.33 -64.18,-168.07 -65.80,-167.59 -66.69,-167.15 -67.41,-166.61 -67.93,-165.96 -68.24,-165.23 -68.38,-164.35 -68.35,-163.38 -68.01,-161.68"/>
    </edge>
    <edge id=":43_4" function="internal">
        <lane id=":43_4_0" index="0" disallow="pedestrian tram rail_urban rail rail_electric rail_fast ship" speed="36.11" length="22.21" width="3.50" shape="-57.51,-168.35 -65.65,-168.72 -72.25,-168.69 -77.32,-168.36 -79.68,-168.08"/>
    </edge>
    <edge id=":43_5" function="internal">
        <lane id=":43_5_0" index="0" disallow="pedestrian tram rail_urban rail rail_electric rail_fast ship" speed="12.33" length="19.81" width="3.50" shape="-60.76,-179.26 -62.82,-176.84 -64.95,-173.93 -66.49,-171.32 -67.50,-169.06 -68.06,-167.22 -68.36,-165.37 -68.36,-163.53 -68.01,-161.68"/>
    </edge>
    <edge id=":43_6" function="internal">
        <lane id=":43_6_0" index="0" disallow="pedestrian tram rail_urban rail rail_electric rail_fast ship" speed="17.08" length="22.43" width="3.50" shape="-60.75,-179.26 -63.05,-176.88 -65.87,-174.39 -68.51,-172.46 -71.34,-170.80 -74.35,-169.46 -76.99,-168.62 -79.68,-168.08"/>
    </edge>
    <edge id=":43_7" function="internal">
        <lane id=":43_7_0" index="0" disallow="pedestrian tram rail_urban rail rail_electric rail_fast ship" speed="16.15" length="20.00" width="3.50" shape="-80.26,-171.52 -77.83,-172.02 -75.51,-172.76 -72.85,-173.96 -70.33,-175.45 -67.98,-177.18 -65.43,-179.45 -63.41,-181.54"/>
    </edge>
    <edge id=":43_8" function="internal">
        <lane id=":43_8_0" index="0" disallow="pedestrian tram rail_urban rail rail_electric rail_fast ship" speed="36.11" length="22.98" width="3.50" shape="-80.26,-171.53 -77.64,-171.85 -72.40,-172.18 -65.61,-172.21 -57.32,-171.85"/>
    </edge>
    <edge id=":43_9" function="internal">
        <lane id=":43_9_0" index="0" disallow="pedestrian tram rail_urban rail rail_electric rail_fast ship" speed="9.25" length="17.41" width="3.50" shape="-80.26,-171.53 -78.86,-171.65 -76.83,-171.51 -74.84,-170.94 -73.51,-170.25 -71.92,-168.97 -70.62,-167.43 -69.61,-165.78 -68.82,-164.05 -68.01,-161.68"/>
    </edge>
    <edge id=":44_0" function="internal">
        <lane id=":44_0_0" index="0" disallow="pedestrian tram rail_urban rail rail_electric rail_fast ship" speed="7.25" length="10.92" width="3.50" shape="65.11,-276.80 64.35,-278.01 63.40,-279.07 62.64,-279.65 61.80,-280.08 60.89,-280.35 59.94,-280.45 58.99,-280.41 57.59,-280.13 56.24,-279.66 55.82,-279.48"/>
    </edge>
    <edge id=":44_1" function="internal">
        <lane id=":44_1_0" index="0" disallow="pedestrian tram rail_urban rail rail_electric rail_fast ship" speed="8.61" length="16.02" width="3.50" shape="65.11,-276.80 64.25,-278.71 63.69,-280.72 63.54,-282.10 63.62,-283.49 63.96,-284.84 64.55,-286.10 65.35,-287.24 66.83,-288.71 68.53,-289.93 69.13,-290.29"/>
    </edge>
    <edge id=":44_2" function="internal">
        <lane id=":44_2_0" index="0" disallow="pedestrian tram rail_urban rail rail_electric rail_fast ship" speed="7.11" length="10.57" width="3.50" shape="70.87,-287.25 70.39,-286.97 69.92,-286.66 69.47,-286.33 69.04,-285.98 68.64,-285.60 68.26,-285.19 67.92,-284.75 67.63,-284.28 67.39,-283.77 67.23,-283.24 67.13,-282.70 67.10,-282.14 67.14,-281.59 67.22,-281.04 67.36,-280.50 67.53,-279.97 67.73,-279.45 67.95,-278.94 68.20,-278.44"/>
    </edge>
    <edge id=":44_3" function="internal">
        <lane id=":44_3_0" index="0" disallow="pedestrian tram rail_urban rail rail_electric rail_fast ship" speed="36.11" length="16.94" width="3.50" shape="70.87,-287.25 63.18,-283.07 55.82,-279.48"/>
    </edge>
    <edge id=":44_4" function="internal">
        <lane id=":44_4_0" index="0" disallow="pedestrian tram rail_urban rail rail_electric rail_fast ship" speed="36.11" length="16.63" width="3.50" shape="54.36,-282.66 61.58,-286.18 69.13,-290.29"/>
    </edge>
    <edge id=":44_5" function="internal">
        <lane id=":44_5_0" index="0" disallow="pedestrian tram rail_urban rail rail_electric rail_fast ship" speed="8.72" length="16.28" width="3.50" shape="54.36,-282.66 54.99,-282.92 56.85,-283.57 58.86,-283.96 60.32,-284.00 61.78,-283.82 63.22,-283.36 64.54,-282.66 65.72,-281.74 67.11,-280.18 68.20,-278.44"/>
    </edge>

    <edge id="19" from="42" to="39" priority="3" type="highway.residential" spreadType="center" length="45.23" shape="-108.28,-288.55 -138.88,-332.90">
        <lane id="19_0" index="0" disallow="pedestrian tram rail_urban rail rail_electric rail_fast ship" speed="36.11" length="45.23" width="3.50" customShape="1" shape="-111.36,-297.00 -125.12,-314.94 -138.88,-332.90"/>
    </edge>
    <edge id="20" from="7" to="42" priority="3" type="highway.residential" spreadType="center" length="45.27" shape="-136.11,-335.03 -105.40,-290.53">
        <lane id="20_0" index="0" disallow="pedestrian tram rail_urban rail rail_electric rail_fast ship" speed="36.11" length="45.27" width="3.50" customShape="1" shape="-136.11,-335.03 -122.34,-317.06 -108.57,-299.10"/>
    </edge>
    <edge id="213" from="38" to="44" priority="3" type="highway.residential" spreadType="center" length="50.85" shape="86.91,-230.91 62.32,-281.77">
        <lane id="213_0" index="0" disallow="pedestrian tram rail_urban rail rail_electric rail_fast ship" speed="36.11" length="50.85" width="3.49" customShape="1" shape="86.91,-230.91 82.90,-240.22 77.62,-252.21 73.03,-261.70 65.10,-276.82"/>
    </edge>
    <edge id="214" from="44" to="34" priority="3" type="highway.residential" spreadType="center" length="51.10" shape="65.47,-283.30 90.12,-232.31">
        <lane id="214_0" index="0" disallow="pedestrian tram rail_urban rail rail_electric rail_fast ship" speed="36.11" length="51.10" width="3.50" customShape="1" shape="68.20,-278.44 76.16,-263.27 80.80,-253.67 86.11,-241.60 90.12,-232.31"/>
    </edge>
    <edge id="22" from="41" to="42" priority="3" type="highway.residential" spreadType="center" length="86.72" shape="-40.80,-212.99 -108.19,-288.44">
        <lane id="22_0" index="0" disallow="pedestrian tram rail_urban rail rail_electric rail_fast ship" speed="36.11" length="86.72" width="3.50" customShape="1" shape="-45.04,-217.73 -72.98,-250.86 -100.93,-284.04"/>
    </edge>
    <edge id="23" from="42" to="41" priority="3" type="highway.residential" spreadType="center" length="86.72" shape="-105.59,-290.77 -38.19,-215.32">
        <lane id="23_0" index="0" disallow="pedestrian tram rail_urban rail rail_electric rail_fast ship" speed="36.11" length="86.72" width="3.50" customShape="1" shape="-98.26,-286.29 -70.30,-253.12 -42.37,-219.98"/>
    </edge>
    <edge id="264" from="41" to="43" priority="3" type="highway.residential" spreadType="center" length="31.88" shape="-38.02,-213.22 -65.84,-169.39">
        <lane id="264_0" index="0" disallow="pedestrian tram rail_urban rail rail_electric rail_fast ship" speed="36.11" length="31.88" width="3.50" customShape="1" shape="-41.35,-204.44 -50.84,-191.42 -56.15,-184.62 -60.80,-179.20"/>
    </edge>
    <edge id="265" from="43" to="41" priority="3" type="highway.residential" spreadType="center" length="31.54" shape="-68.79,-171.26 -40.97,-215.09">
        <lane id="265_0" index="0" disallow="pedestrian tram rail_urban rail rail_electric rail_fast ship" speed="36.11" length="31.54" width="3.50" customShape="1" shape="-63.41,-181.54 -58.86,-186.83 -53.63,-193.52 -44.17,-206.51"/>
    </edge>
    <edge id="267" from="44" to="41" priority="3" type="highway.residential" spreadType="center" length="107.72" shape="64.90,-281.04 -38.53,-212.70">
        <lane id="267_0" index="0" disallow="pedestrian tram rail_urban rail rail_electric rail_fast ship" speed="36.11" length="107.72" width="3.50" customShape="1" shape="55.82,-279.48 51.65,-277.56 43.00,-273.41 36.36,-269.81 22.48,-261.75 13.14,-255.93 5.30,-250.60 -1.51,-245.54 -7.71,-240.52 -12.85,-235.86 -18.48,-230.23 -30.74,-216.94"/>
    </edge>
    <edge id="268" from="41" to="44" priority="3" type="highway.residential" spreadType="center" length="109.07" shape="-40.46,-215.62 62.97,-283.96">
        <lane id="268_0" index="0" disallow="pedestrian tram rail_urban rail rail_electric rail_fast ship" speed="36.11" length="109.07" width="3.50" customShape="1" shape="-33.29,-219.33 -21.00,-232.65 -15.27,-238.39 -9.98,-243.18 -3.65,-248.31 3.27,-253.45 11.24,-258.86 20.68,-264.75 34.64,-272.86 41.42,-276.53 50.17,-280.73 54.36,-282.66"/>
    </edge>
    <edge id="270" from="19" to="44" priority="3" type="highway.residential" spreadType="center" length="69.99" shape="131.15,-322.82 64.82,-280.98">
        <lane id="270_0" index="0" disallow="pedestrian tram rail_urban rail rail_electric rail_fast ship" speed="36.11" length="69.99" width="3.50" customShape="1" shape="131.15,-322.82 77.08,-290.81 70.87,-287.25"/>
    </edge>
    <edge id="271" from="44" to="6" priority="3" type="highway.residential" spreadType="center" length="70.00" shape="62.95,-283.94 129.42,-325.86">
        <lane id="271_0" index="0" disallow="pedestrian tram rail_urban rail rail_electric rail_fast ship" speed="36.11" length="70.00" width="3.50" customShape="1" shape="69.13,-290.29 75.32,-293.84 129.42,-325.86"/>
    </edge>
    <edge id="34" from="36" to="42" priority="3" type="highway.residential" spreadType="center" length="60.61" shape="-154.85,-243.63 -108.08,-290.85">
        <lane id="34_0" index="0" disallow="pedestrian tram rail_urban rail rail_electric rail_fast ship" speed="36.11" length="60.61" width="3.50" customShape="1" shape="-154.85,-243.63 -133.57,-265.22 -112.30,-286.79"/>
    </edge>
    <edge id="35" from="42" to="37" priority="3" type="highway.residential" spreadType="center" length="60.59" shape="-105.60,-288.39 -152.35,-241.19">
        <lane id="35_0" index="0" disallow="pedestrian tram rail_urban rail rail_electric rail_fast ship" speed="36.11" length="60.59" width="3.50" customShape="1" shape="-109.81,-284.33 -131.08,-262.76 -152.35,-241.19"/>
    </edge>
    <edge id="43" from="43" to="16" priority="3" type="highway.residential" spreadType="center" length="33.54" shape="-65.58,-170.77 -57.82,-129.73">
        <lane id="43_0" index="0" disallow="pedestrian tram rail_urban rail rail_electric rail_fast ship" speed="36.11" length="33.54" width="3.50" customShape="1" shape="-68.01,-161.68 -64.99,-151.64 -57.82,-129.73"/>
    </edge>
    <edge id="44" from="35" to="43" priority="3" type="highway.residential" spreadType="center" length="33.71" shape="-61.15,-128.64 -69.01,-170.12">
        <lane id="44_0" index="0" disallow="pedestrian tram rail_urban rail rail_electric rail_fast ship" speed="36.11" length="33.71" width="3.49" customShape="1" shape="-61.15,-128.64 -68.34,-150.59 -71.38,-160.76"/>
    </edge>
    <edge id="67" from="43" to="31" priority="3" type="highway.residential" spreadType="center" length="70.00" shape="-67.29,-172.13 12.56,-170.80">
        <lane id="67_0" index="0" disallow="pedestrian tram rail_urban rail rail_electric rail_fast ship" speed="36.11" length="70.00" width="3.50" customShape="1" shape="-57.32,-171.85 -30.72,-170.12 -17.71,-169.61 -6.70,-169.54 1.79,-169.79 9.22,-170.39 12.56,-170.80"/>
    </edge>
    <edge id="68" from="40" to="43" priority="3" type="highway.residential" spreadType="center" length="70.03" shape="12.37,-167.25 -67.35,-168.63">
        <lane id="68_0" index="0" disallow="pedestrian tram rail_urban rail rail_electric rail_fast ship" speed="36.11" length="70.03" width="3.50" customShape="1" shape="12.37,-167.25 9.57,-166.90 1.98,-166.29 -6.67,-166.04 -17.79,-166.11 -30.91,-166.63 -57.54,-168.36"/>
    </edge>
    <edge id="70" from="23" to="43" priority="3" type="highway.residential" spreadType="center" length="57.63" shape="-133.26,-149.75 -67.81,-172.05">
        <lane id="70_0" index="0" disallow="pedestrian tram rail_urban rail rail_electric rail_fast ship" speed="36.11" length="57.63" width="3.50" customShape="1" shape="-133.26,-149.75 -120.19,-156.27 -100.47,-165.52 -94.76,-167.90 -89.84,-169.56 -85.78,-170.58 -80.18,-171.54"/>
    </edge>
    <edge id="71" from="43" to="18" priority="3" type="highway.residential" spreadType="center" length="56.49" shape="-66.68,-168.73 -131.67,-146.63">
        <lane id="71_0" index="0" disallow="pedestrian tram rail_urban rail rail_electric rail_fast ship" speed="36.11" length="56.49" width="3.50" customShape="1" shape="-79.68,-168.08 -85.05,-167.16 -88.84,-166.21 -93.52,-164.63 -99.04,-162.32 -118.66,-153.12 -131.67,-146.63"/>
    </edge>

    <junction id="16" type="dead_end" x="-57.82" y="-129.73" incLanes="43_0" intLanes="" shape="-56.16,-130.27 -59.48,-129.18" rightOfWay="edgePriority"/>
    <junction id="18" type="dead_end" x="-131.67" y="-146.63" incLanes="71_0" intLanes="" shape="-130.89,-145.07 -132.45,-148.20" rightOfWay="edgePriority"/>
    <junction id="19" type="dead_end" x="131.15" y="-322.82" incLanes="" intLanes="" shape="130.26,-324.33 132.04,-321.31" rightOfWay="edgePriority"/>
    <junction id="23" type="dead_end" x="-133.26" y="-149.75" incLanes="" intLanes="" shape="-132.48,-148.19 -134.04,-151.32" rightOfWay="edgePriority"/>
    <junction id="31" type="dead_end" x="12.56" y="-170.80" incLanes="67_0" intLanes="" shape="12.35,-172.53 12.78,-169.06" rightOfWay="edgePriority"/>
    <junction id="34" type="dead_end" x="90.12" y="-232.31" incLanes="214_0" intLanes="" shape="91.73,-233.00 88.51,-231.62" rightOfWay="edgePriority"/>
    <junction id="35" type="dead_end" x="-61.15" y="-128.64" incLanes="" intLanes="" shape="-59.49,-129.18 -62.81,-128.09" rightOfWay="edgePriority"/>
    <junction id="36" type="dead_end" x="-154.85" y="-243.63" incLanes="" intLanes="" shape="-153.61,-242.41 -156.10,-244.86" rightOfWay="edgePriority"/>
    <junction id="37" type="dead_end" x="-152.35" y="-241.19" incLanes="35_0" intLanes="" shape="-151.10,-239.97 -153.59,-242.42" rightOfWay="edgePriority"/>
    <junction id="38" type="dead_end" x="86.91" y="-230.91" incLanes="" intLanes="" shape="88.51,-231.61 85.30,-230.22" rightOfWay="edgePriority"/>
    <junction id="39" type="dead_end" x="-138.88" y="-332.90" incLanes="19_0" intLanes="" shape="-140.27,-331.83 -137.50,-333.96" rightOfWay="edgePriority"/>
    <junction id="40" type="dead_end" x="12.37" y="-167.25" incLanes="" intLanes="" shape="12.16,-168.98 12.58,-165.51" rightOfWay="edgePriority"/>
    <junction id="41" type="priority" x="-39.49" y="-214.16" incLanes="267_0 23_0 265_0" intLanes=":41_0_0 :41_1_0 :41_2_0 :41_3_0 :41_4_0 :41_5_0" shape="-29.43,-215.77 -34.58,-220.52 -36.68,-219.08 -37.75,-218.98 -38.83,-219.28 -39.93,-219.99 -41.03,-221.11 -46.38,-216.60 -44.53,-213.50 -44.20,-211.98 -44.27,-210.48 -44.73,-209.00 -45.59,-207.53 -39.94,-203.41 -37.88,-206.19 -36.31,-208.20 -34.96,-209.81 -33.54,-211.37 -31.79,-213.24">
        <request index="0" response="000000" foes="001000" cont="0"/>
        <request index="1" response="110000" foes="111000" cont="0"/>
        <request index="2" response="100000" foes="100000" cont="0"/>
        <request index="3" response="100011" foes="100011" cont="0"/>
        <request index="4" response="000000" foes="000010" cont="0"/>
        <request index="5" response="000000" foes="001110" cont="0"/>
    </junction>
    <junction id="42" type="priority" x="-106.87" y="-289.58" incLanes="22_0 20_0 34_0" intLanes=":42_0_0 :42_1_0 :42_2_0 :42_3_0 :42_4_0 :42_5_0" shape="-102.27,-282.91 -96.92,-287.42 -107.20,-300.19 -112.75,-295.93 -111.48,-293.27 -111.42,-291.95 -111.74,-290.64 -112.45,-289.32 -113.55,-288.01 -108.56,-283.10 -106.40,-284.57 -105.34,-284.73 -104.30,-284.51 -103.28,-283.90">
        <request index="0" response="000000" foes="001000" cont="0"/>
        <request index="1" response="000000" foes="111000" cont="0"/>
        <request index="2" response="000000" foes="100000" cont="0"/>
        <request index="3" response="000011" foes="100011" cont="0"/>
        <request index="4" response="000010" foes="000010" cont="0"/>
        <request index="5" response="001110" foes="001110" cont="0"/>
    </junction>
    <junction id="43" type="priority" x="-67.29" y="-170.38" incLanes="44_0 68_0 264_0 70_0" intLanes=":43_0_0 :43_1_0 :43_2_0 :43_3_0 :43_4_0 :43_5_0 :43_6_0 :43_7_0 :43_8_0 :43_9_0" shape="-73.03,-160.18 -66.33,-162.19 -66.05,-164.94 -64.93,-165.83 -63.15,-166.41 -60.73,-166.67 -57.66,-166.61 -57.20,-173.59 -60.03,-174.26 -60.66,-174.91 -60.77,-175.77 -60.36,-176.84 -59.43,-178.12 -64.73,-182.68 -67.36,-179.67 -69.49,-177.48 -71.49,-175.93 -73.75,-174.83 -76.65,-174.00 -80.56,-173.25 -79.38,-166.35 -76.77,-165.99 -75.65,-165.17 -74.65,-163.93 -73.78,-162.27">
        <request index="0" response="0001010000" foes="0001010000" cont="0"/>
        <request index="1" response="1110010000" foes="1111010000" cont="0"/>
        <request index="2" response="1100110000" foes="1100110000" cont="0"/>
        <request index="3" response="0000000000" foes="1000100000" cont="0"/>
        <request index="4" response="0000000000" foes="1001100111" cont="0"/>
        <request index="5" response="1100011000" foes="1100011100" cont="0"/>
        <request index="6" response="1100010010" foes="1100010011" cont="0"/>
        <request index="7" response="0000000000" foes="0000000010" cont="0"/>
        <request index="8" response="0000000000" foes="0001100110" cont="0"/>
        <request index="9" response="0000011000" foes="0001111110" cont="0"/>
    </junction>
    <junction id="44" type="priority" x="63.91" y="-282.49" incLanes="213_0 270_0 268_0" intLanes=":44_0_0 :44_1_0 :44_2_0 :44_3_0 :44_4_0 :44_5_0" shape="63.56,-276.01 69.75,-279.26 69.02,-281.80 69.18,-282.93 69.68,-283.96 70.54,-284.89 71.74,-285.73 68.26,-291.80 65.22,-290.06 62.96,-288.79 61.07,-287.78 59.16,-286.82 56.81,-285.71 53.63,-284.25 56.55,-277.89 59.49,-278.67 60.73,-278.53 61.82,-278.04 62.76,-277.20">
        <request index="0" response="001000" foes="001000" cont="0"/>
        <request index="1" response="111000" foes="111000" cont="0"/>
        <request index="2" response="000000" foes="100000" cont="0"/>
        <request index="3" response="000000" foes="100011" cont="0"/>
        <request index="4" response="000000" foes="000010" cont="0"/>
        <request index="5" response="001100" foes="001110" cont="0"/>
    </junction>
    <junction id="6" type="dead_end" x="129.42" y="-325.86" incLanes="271_0" intLanes="" shape="128.53,-327.37 130.31,-324.35" rightOfWay="edgePriority"/>
    <junction id="7" type="dead_end" x="-136.11" y="-335.03" incLanes="" intLanes="" shape="-137.50,-333.96 -134.72,-336.09" rightOfWay="edgePriority"/>
