<!-- generated on 2020-12-18 16:17:17.173254 by ipykernel_launcher.py v1_2_0+5214-53edc58fcd
-->
<tlLogics/>
