<?xml version="1.0" encoding="UTF-8"?>

<!-- generated on Fri Dec 18 16:17:17 2020 by Eclipse SUMO netconvert Version 1.8.0
<configuration xmlns:xsi="http://www.w3.org/2001/XMLSchema-instance" xsi:noNamespaceSchemaLocation="http://sumo.dlr.de/xsd/netconvertConfiguration.xsd">

    <input>
        <node-files value="./converted_scenarios/SUMO/CHN_Sha-8_1_I-1-1/nodes.net.xml"/>
        <edge-files value="./converted_scenarios/SUMO/CHN_Sha-8_1_I-1-1/edges.net.xml"/>
        <connection-files value="./converted_scenarios/SUMO/CHN_Sha-8_1_I-1-1/_connections.net.xml"/>
        <tllogic-files value="./converted_scenarios/SUMO/CHN_Sha-8_1_I-1-1/_tll.net.xml"/>
    </input>

    <output>
        <output-file value="./converted_scenarios/SUMO/CHN_Sha-8_1_I-1-1/CHN_Sha-8_1_I-1-1.net.xml"/>
    </output>

    <processing>
        <plain.extend-edge-shape value="true"/>
        <geometry.remove.keep-edges.explicit value="true"/>
        <geometry.avoid-overlap value="true"/>
        <offset.disable-normalization value="true"/>
    </processing>

    <junctions>
        <no-turnarounds value="true"/>
        <junctions.internal-link-detail value="20"/>
    </junctions>

    <report>
        <aggregate-warnings value="5"/>
    </report>

    <random_number>
        <seed value="1234"/>
    </random_number>

</configuration>
-->

<net version="1.6" junctionCornerDetail="5" junctionLinkDetail="20" limitTurnSpeed="5.50" xmlns:xsi="http://www.w3.org/2001/XMLSchema-instance" xsi:noNamespaceSchemaLocation="http://sumo.dlr.de/xsd/net_file.xsd">

    <location netOffset="0.00,0.00" convBoundary="-284.23,-207.67,212.04,380.56" origBoundary="-285.12,-207.67,212.70,380.56" projParameter="!"/>

    <edge id=":10_0" function="internal">
        <lane id=":10_0_0" index="0" disallow="bus truck rail_fast" speed="9.92" length="7.65" width="2.50" shape="-108.38,-19.50 -108.53,-18.97 -108.70,-18.48 -108.86,-18.04 -109.03,-17.63 -109.20,-17.25 -109.36,-16.90 -109.52,-16.57 -109.66,-16.25 -109.78,-15.95 -109.89,-15.65 -109.97,-15.34 -110.03,-15.04 -110.05,-14.72 -110.05,-14.38 -110.01,-14.02 -109.93,-13.64 -109.80,-13.22 -109.63,-12.76 -109.41,-12.27"/>
    </edge>
    <edge id=":10_1" function="internal">
        <lane id=":10_1_0" index="0" disallow="bus truck rail_fast" speed="9.21" length="8.96" width="2.50" shape="-108.38,-19.50 -108.57,-18.81 -108.76,-18.15 -108.96,-17.53 -109.16,-16.93 -109.36,-16.37 -109.56,-15.84 -109.77,-15.34 -109.97,-14.87 -110.19,-14.43 -110.40,-14.02 -110.62,-13.64 -110.84,-13.30 -111.06,-12.98 -111.28,-12.70 -111.51,-12.45 -111.74,-12.22 -111.97,-12.03 -112.21,-11.87 -112.44,-11.75"/>
    </edge>
    <edge id=":11_0" function="internal">
        <lane id=":11_0_0" index="0" disallow="bus truck rail_fast" speed="31.74" length="11.82" width="2.50" shape="-112.26,-10.53 -112.30,-11.30 -112.32,-12.01 -112.32,-12.68 -112.29,-13.31 -112.25,-13.91 -112.20,-14.49 -112.12,-15.04 -112.03,-15.58 -111.93,-16.11 -111.81,-16.64 -111.68,-17.16 -111.53,-17.70 -111.38,-18.24 -111.21,-18.81 -111.04,-19.40 -110.86,-20.01 -110.67,-20.66 -110.47,-21.36 -110.27,-22.09"/>
    </edge>
    <edge id=":11_1" function="internal">
        <lane id=":11_1_0" index="0" disallow="bus truck rail_fast" speed="36.11" length="3.56" width="2.50" shape="-111.19,-18.65 -110.27,-22.09"/>
    </edge>
    <edge id=":13_0" function="internal">
        <lane id=":13_0_0" index="0" disallow="bus truck rail_fast" speed="36.11" length="7.14" width="2.50" shape="-85.51,20.57 -85.85,20.15 -86.15,19.78 -86.42,19.44 -86.67,19.13 -86.90,18.85 -87.11,18.59 -87.31,18.36 -87.51,18.14 -87.70,17.92 -87.89,17.72 -88.10,17.52 -88.31,17.31 -88.54,17.10 -88.79,16.88 -89.06,16.65 -89.37,16.40 -89.70,16.13 -90.08,15.82 -90.50,15.49"/>
    </edge>
    <edge id=":13_1" function="internal">
        <lane id=":13_1_0" index="0" disallow="bus truck rail_fast" speed="36.11" length="7.47" width="2.50" shape="-84.46,19.96 -90.50,15.49"/>
        <lane id=":13_1_1" index="1" disallow="bus truck rail_fast" speed="36.11" length="7.47" width="2.50" shape="-82.98,17.95 -88.96,13.52"/>
    </edge>
    <edge id=":14_0" function="internal">
        <lane id=":14_0_0" index="0" disallow="bus truck rail_fast" speed="36.11" length="9.09" width="2.50" shape="-109.34,0.03 -116.29,-5.83"/>
        <lane id=":14_0_1" index="1" disallow="bus truck rail_fast" speed="36.11" length="9.09" width="2.50" shape="-107.73,-1.88 -114.68,-7.74"/>
    </edge>
    <edge id=":14_2" function="internal">
        <lane id=":14_2_0" index="0" disallow="bus truck rail_fast" speed="10.11" length="9.87" width="2.50" shape="-107.73,-1.88 -108.16,-2.25 -108.57,-2.63 -108.96,-3.02 -109.33,-3.42 -109.67,-3.82 -110.00,-4.24 -110.30,-4.66 -110.58,-5.09 -110.84,-5.52 -111.08,-5.97 -111.30,-6.42 -111.49,-6.88 -111.66,-7.35 -111.81,-7.83 -111.94,-8.32 -112.05,-8.81 -112.14,-9.31 -112.21,-9.82 -112.25,-10.33"/>
    </edge>
    <edge id=":15_0" function="internal">
        <lane id=":15_0_0" index="0" disallow="bus truck rail_fast" speed="16.05" length="7.91" width="2.50" shape="-109.33,-12.08 -109.08,-11.56 -108.85,-11.08 -108.64,-10.64 -108.45,-10.25 -108.27,-9.89 -108.10,-9.56 -107.93,-9.26 -107.76,-8.97 -107.59,-8.71 -107.40,-8.45 -107.21,-8.20 -106.99,-7.95 -106.76,-7.70 -106.50,-7.44 -106.21,-7.16 -105.88,-6.87 -105.52,-6.56 -105.12,-6.21 -104.67,-5.84"/>
    </edge>
    <edge id=":15_1" function="internal">
        <lane id=":15_1_0" index="0" disallow="bus truck rail_fast" speed="36.11" length="10.07" width="2.50" shape="-112.36,-12.33 -104.67,-5.84"/>
        <lane id=":15_1_1" index="1" disallow="bus truck rail_fast" speed="36.11" length="10.07" width="2.50" shape="-113.98,-10.42 -106.28,-3.92"/>
    </edge>
    <edge id=":16_0" function="internal">
        <lane id=":16_0_0" index="0" disallow="bus truck rail_fast" speed="5.52" length="10.55" width="2.49" shape="-86.87,8.80 -76.55,11.00"/>
    </edge>
    <edge id=":16_1" function="internal">
        <lane id=":16_1_0" index="0" disallow="bus truck rail_fast" speed="36.11" length="11.23" width="2.50" shape="-86.87,8.80 -77.95,15.46"/>
        <lane id=":16_1_1" index="1" disallow="bus truck rail_fast" speed="36.11" length="11.23" width="2.50" shape="-88.39,10.79 -79.32,17.57"/>
    </edge>
    <edge id=":17_0" function="internal">
        <lane id=":17_0_0" index="0" disallow="bus truck rail_fast" speed="13.87" length="6.98" width="2.50" shape="-40.47,190.74 -40.91,190.46 -41.31,190.22 -41.67,190.00 -42.00,189.80 -42.31,189.63 -42.60,189.48 -42.87,189.35 -43.14,189.23 -43.40,189.13 -43.67,189.05 -43.94,188.97 -44.22,188.91 -44.52,188.85 -44.85,188.80 -45.20,188.75 -45.58,188.71 -46.00,188.66 -46.47,188.61 -46.98,188.56"/>
    </edge>
    <edge id=":17_1" function="internal">
        <lane id=":17_1_0" index="0" disallow="bus truck rail_fast" speed="36.11" length="8.82" width="2.50" shape="-38.21,189.53 -46.98,188.56"/>
    </edge>
    <edge id=":18_0" function="internal">
        <lane id=":18_0_0" index="0" disallow="bus truck rail_fast" speed="36.11" length="3.00" width="2.50" shape="-115.70,174.28 -118.20,172.62"/>
    </edge>
    <edge id=":19_0" function="internal">
        <lane id=":19_0_0" index="0" disallow="bus truck rail_fast" speed="36.11" length="15.13" width="2.50" shape="-126.26,162.84 -125.66,163.36 -125.06,163.88 -124.46,164.40 -123.86,164.92 -123.25,165.43 -122.64,165.94 -122.02,166.45 -121.40,166.96 -120.78,167.46 -120.15,167.95 -119.52,168.45 -118.89,168.93 -118.25,169.42 -117.61,169.89 -116.97,170.36 -116.32,170.83 -115.67,171.28 -115.02,171.73 -114.37,172.17"/>
    </edge>
    <edge id=":19_1" function="internal">
        <lane id=":19_1_0" index="0" disallow="bus truck rail_fast" speed="36.11" length="15.51" width="2.50" shape="-127.56,164.03 -126.86,164.40 -126.15,164.78 -125.45,165.17 -124.74,165.57 -124.03,165.99 -123.33,166.41 -122.62,166.83 -121.92,167.27 -121.21,167.71 -120.51,168.15 -119.81,168.59 -119.11,169.04 -118.42,169.49 -117.73,169.94 -117.05,170.39 -116.37,170.84 -115.69,171.29 -115.03,171.73 -114.37,172.17"/>
    </edge>
    <edge id=":2_0" function="internal">
        <lane id=":2_0_0" index="0" disallow="bus truck rail_fast" speed="6.20" length="7.91" width="2.50" shape="-28.95,190.62 -29.67,190.54 -30.35,190.46 -31.00,190.41 -31.61,190.37 -32.18,190.35 -32.72,190.34 -33.22,190.35 -33.68,190.37 -34.11,190.41 -34.50,190.46 -34.85,190.53 -35.16,190.62 -35.44,190.72 -35.68,190.84 -35.89,190.97 -36.06,191.12 -36.19,191.29 -36.29,191.47 -36.34,191.66"/>
    </edge>
    <edge id=":2_1" function="internal">
        <lane id=":2_1_0" index="0" disallow="bus truck rail_fast" speed="36.11" length="9.13" width="2.50" shape="-28.95,190.62 -38.01,189.55"/>
    </edge>
    <edge id=":20_0" function="internal">
        <lane id=":20_0_0" index="0" disallow="bus truck rail_fast" speed="36.11" length="8.82" width="2.50" shape="-46.72,186.07 -37.96,187.04"/>
    </edge>
    <edge id=":20_1" function="internal">
        <lane id=":20_1_0" index="0" disallow="bus truck rail_fast" speed="8.44" length="9.85" width="2.50" shape="-46.72,186.07 -45.99,186.16 -45.29,186.25 -44.62,186.36 -43.98,186.49 -43.37,186.63 -42.79,186.78 -42.25,186.95 -41.74,187.13 -41.25,187.33 -40.80,187.54 -40.39,187.76 -40.00,188.00 -39.65,188.25 -39.32,188.52 -39.03,188.80 -38.77,189.09 -38.54,189.40 -38.34,189.72 -38.18,190.06"/>
    </edge>
    <edge id=":22_0" function="internal">
        <lane id=":22_0_0" index="0" disallow="bus truck rail_fast" speed="7.62" length="5.35" width="2.50" shape="-48.83,29.07 -48.94,29.25 -49.04,29.44 -49.13,29.65 -49.21,29.86 -49.27,30.09 -49.33,30.32 -49.38,30.57 -49.42,30.82 -49.44,31.08 -49.46,31.36 -49.46,31.64 -49.46,31.94 -49.44,32.24 -49.42,32.55 -49.38,32.88 -49.33,33.21 -49.27,33.56 -49.20,33.91 -49.12,34.27"/>
    </edge>
    <edge id=":22_1" function="internal">
        <lane id=":22_1_0" index="0" disallow="bus truck rail_fast" speed="36.11" length="5.52" width="2.48" shape="-48.83,29.07 -49.05,29.41 -49.25,29.73 -49.43,30.01 -49.59,30.27 -49.74,30.51 -49.88,30.72 -50.01,30.93 -50.14,31.12 -50.27,31.30 -50.40,31.47 -50.54,31.64 -50.69,31.82 -50.85,32.00 -51.02,32.18 -51.21,32.38 -51.43,32.60 -51.67,32.83 -51.94,33.08 -52.25,33.36"/>
    </edge>
    <edge id=":22_2" function="internal">
        <lane id=":22_2_0" index="0" disallow="bus truck rail_fast" speed="36.11" length="3.89" width="2.50" shape="-48.83,29.07 -48.99,29.31 -49.13,29.52 -49.27,29.72 -49.40,29.89 -49.52,30.04 -49.64,30.18 -49.75,30.31 -49.86,30.42 -49.97,30.54 -50.08,30.64 -50.19,30.75 -50.31,30.87 -50.43,30.98 -50.56,31.11 -50.70,31.25 -50.85,31.40 -51.01,31.58 -51.19,31.77 -51.38,31.99"/>
    </edge>
    <edge id=":23_0" function="internal">
        <lane id=":23_0_0" index="0" disallow="bus truck rail_fast" speed="6.93" length="5.89" width="2.48" shape="-58.60,43.76 -59.01,43.65 -59.40,43.56 -59.78,43.48 -60.15,43.41 -60.51,43.36 -60.85,43.33 -61.19,43.30 -61.51,43.30 -61.82,43.30 -62.11,43.32 -62.40,43.36 -62.67,43.41 -62.93,43.48 -63.18,43.55 -63.42,43.65 -63.65,43.76 -63.86,43.88 -64.06,44.02 -64.25,44.17"/>
    </edge>
    <edge id=":23_1" function="internal">
        <lane id=":23_1_0" index="0" disallow="bus truck rail_fast" speed="25.61" length="11.73" width="2.48" shape="-54.18,38.34 -54.90,38.61 -55.57,38.86 -56.19,39.11 -56.78,39.34 -57.34,39.58 -57.87,39.81 -58.37,40.05 -58.86,40.30 -59.33,40.55 -59.79,40.81 -60.24,41.09 -60.70,41.38 -61.16,41.70 -61.62,42.03 -62.10,42.40 -62.60,42.79 -63.12,43.21 -63.67,43.67 -64.25,44.17"/>
    </edge>
    <edge id=":23_2" function="internal">
        <lane id=":23_2_0" index="0" disallow="bus truck rail_fast" speed="36.11" length="15.93" width="2.48" shape="-52.42,33.51 -64.25,44.17"/>
    </edge>
    <edge id=":23_3" function="internal">
        <lane id=":23_3_0" index="0" disallow="bus truck rail_fast" speed="36.11" length="3.70" width="2.48" shape="-61.45,41.75 -64.25,44.17"/>
    </edge>
    <edge id=":24_0" function="internal">
        <lane id=":24_0_0" index="0" disallow="bus truck rail_fast" speed="10.21" length="10.20" width="2.49" shape="-130.19,153.55 -130.16,154.18 -130.11,154.78 -130.04,155.38 -129.96,155.95 -129.85,156.51 -129.73,157.06 -129.59,157.58 -129.43,158.10 -129.25,158.60 -129.05,159.08 -128.83,159.54 -128.59,159.99 -128.34,160.43 -128.06,160.85 -127.77,161.25 -127.46,161.64 -127.13,162.01 -126.78,162.37 -126.41,162.71"/>
    </edge>
    <edge id=":24_1" function="internal">
        <lane id=":24_1_0" index="0" disallow="bus truck rail_fast" speed="34.99" length="13.51" width="2.49" shape="-130.19,153.55 -130.16,154.33 -130.12,155.08 -130.06,155.82 -130.00,156.53 -129.93,157.23 -129.84,157.92 -129.74,158.60 -129.63,159.26 -129.51,159.92 -129.37,160.58 -129.22,161.24 -129.06,161.89 -128.88,162.55 -128.69,163.22 -128.48,163.89 -128.26,164.58 -128.03,165.28 -127.78,165.99 -127.51,166.72"/>
    </edge>
    <edge id=":24_2" function="internal">
        <lane id=":24_2_0" index="0" disallow="bus truck rail_fast" speed="11.12" length="9.40" width="2.49" shape="-130.19,153.55 -130.16,154.24 -130.14,154.86 -130.11,155.44 -130.09,155.97 -130.08,156.45 -130.08,156.91 -130.09,157.33 -130.12,157.73 -130.17,158.12 -130.24,158.49 -130.34,158.86 -130.47,159.23 -130.63,159.60 -130.82,159.99 -131.05,160.40 -131.32,160.83 -131.64,161.30 -132.00,161.80 -132.42,162.34"/>
    </edge>
    <edge id=":25_0" function="internal">
        <lane id=":25_0_0" index="0" disallow="bus truck rail_fast" speed="36.11" length="2.00" width="2.49" shape="-155.40,163.75 -155.55,163.74 -155.68,163.72 -155.80,163.70 -155.91,163.69 -156.02,163.68 -156.11,163.67 -156.19,163.66 -156.28,163.65 -156.36,163.64 -156.43,163.62 -156.51,163.61 -156.59,163.60 -156.68,163.58 -156.77,163.56 -156.87,163.54 -156.98,163.52 -157.10,163.49 -157.23,163.46 -157.37,163.42"/>
    </edge>
    <edge id=":26_0" function="internal">
        <lane id=":26_0_0" index="0" disallow="bus truck rail_fast" speed="36.11" length="1.71" width="2.49" shape="-157.57,163.37 -157.69,163.34 -157.80,163.32 -157.91,163.30 -158.00,163.28 -158.08,163.26 -158.16,163.25 -158.24,163.24 -158.31,163.23 -158.38,163.22 -158.44,163.20 -158.51,163.19 -158.58,163.17 -158.65,163.16 -158.72,163.13 -158.81,163.11 -158.89,163.07 -158.99,163.04 -159.10,162.99 -159.21,162.94"/>
    </edge>
    <edge id=":26_1" function="internal">
        <lane id=":26_1_0" index="0" disallow="bus truck rail_fast" speed="5.89" length="4.99" width="2.49" shape="-157.57,163.37 -157.72,163.31 -157.86,163.20 -157.99,163.05 -158.12,162.86 -158.24,162.64 -158.35,162.39 -158.46,162.12 -158.56,161.83 -158.65,161.52 -158.74,161.21 -158.82,160.90 -158.89,160.58 -158.96,160.27 -159.02,159.98 -159.07,159.69 -159.12,159.43 -159.16,159.19 -159.20,158.98 -159.23,158.81"/>
    </edge>
    <edge id=":27_0" function="internal">
        <lane id=":27_0_0" index="0" disallow="bus truck rail_fast" speed="36.11" length="3.42" width="2.50" shape="-159.54,160.07 -159.30,160.15 -159.08,160.23 -158.89,160.31 -158.71,160.38 -158.55,160.44 -158.40,160.50 -158.26,160.55 -158.13,160.60 -158.00,160.65 -157.87,160.70 -157.74,160.74 -157.61,160.79 -157.47,160.83 -157.31,160.87 -157.15,160.92 -156.97,160.96 -156.76,161.01 -156.54,161.06 -156.29,161.12"/>
    </edge>
    <edge id=":27_1" function="internal">
        <lane id=":27_1_0" index="0" disallow="bus truck rail_fast" speed="4.76" length="2.77" width="2.50" shape="-158.63,162.38 -158.49,162.23 -158.35,162.08 -158.22,161.95 -158.08,161.83 -157.95,161.72 -157.82,161.61 -157.69,161.52 -157.57,161.43 -157.44,161.36 -157.32,161.29 -157.20,161.24 -157.08,161.19 -156.96,161.15 -156.84,161.12 -156.73,161.10 -156.62,161.09 -156.51,161.09 -156.40,161.10 -156.29,161.12"/>
    </edge>
    <edge id=":28_0" function="internal">
        <lane id=":28_0_0" index="0" disallow="bus truck rail_fast" speed="36.11" length="1.20" width="2.50" shape="-156.09,161.16 -156.01,161.18 -155.93,161.19 -155.85,161.21 -155.79,161.22 -155.73,161.23 -155.67,161.23 -155.62,161.24 -155.57,161.24 -155.53,161.25 -155.48,161.25 -155.43,161.25 -155.38,161.26 -155.33,161.26 -155.27,161.26 -155.21,161.27 -155.15,161.27 -155.07,161.28 -154.99,161.29 -154.90,161.30"/>
    </edge>
    <edge id=":29_0" function="internal">
        <lane id=":29_0_0" index="0" disallow="bus truck rail_fast" speed="36.11" length="7.08" width="2.50" shape="-57.12,40.16 -62.83,36.13"/>
        <lane id=":29_0_1" index="1" disallow="bus truck rail_fast" speed="36.11" length="7.08" width="2.50" shape="-55.65,38.14 -61.51,34.01"/>
    </edge>
    <edge id=":29_2" function="internal">
        <lane id=":29_2_0" index="0" disallow="bus truck rail_fast" speed="21.23" length="8.29" width="2.50" shape="-53.78,36.78 -54.39,36.66 -54.94,36.55 -55.43,36.45 -55.89,36.37 -56.30,36.29 -56.68,36.21 -57.04,36.13 -57.38,36.05 -57.70,35.96 -58.01,35.86 -58.33,35.75 -58.64,35.62 -58.97,35.48 -59.32,35.31 -59.69,35.11 -60.08,34.89 -60.51,34.63 -60.99,34.34 -61.51,34.01"/>
    </edge>
    <edge id=":29_3" function="internal">
        <lane id=":29_3_0" index="0" disallow="bus truck rail_fast" speed="7.55" length="11.30" width="2.50" shape="-51.52,32.14 -52.01,32.67 -52.50,33.16 -53.00,33.59 -53.51,33.98 -54.01,34.32 -54.52,34.61 -55.04,34.86 -55.56,35.05 -56.08,35.20 -56.60,35.30 -57.13,35.35 -57.67,35.35 -58.20,35.30 -58.75,35.21 -59.29,35.07 -59.84,34.88 -60.39,34.64 -60.95,34.35 -61.51,34.01"/>
    </edge>
    <edge id=":3_0" function="internal">
        <lane id=":3_0_0" index="0" disallow="bus truck rail_fast" speed="36.11" length="9.17" width="2.50" shape="-37.76,187.07 -28.65,188.14"/>
    </edge>
    <edge id=":3_1" function="internal">
        <lane id=":3_1_0" index="0" disallow="bus truck rail_fast" speed="9.82" length="9.69" width="2.50" shape="-37.87,190.02 -37.54,189.75 -37.18,189.50 -36.81,189.27 -36.43,189.05 -36.03,188.86 -35.61,188.68 -35.17,188.53 -34.72,188.39 -34.25,188.27 -33.77,188.17 -33.26,188.09 -32.74,188.03 -32.21,187.99 -31.66,187.97 -31.09,187.96 -30.50,187.98 -29.90,188.01 -29.29,188.07 -28.65,188.14"/>
    </edge>
    <edge id=":30_0" function="internal">
        <lane id=":30_0_0" index="0" disallow="bus truck rail_fast" speed="36.11" length="0.48" width="2.50" shape="-63.00,36.03 -62.59,36.19"/>
        <lane id=":30_0_1" index="1" disallow="bus truck rail_fast" speed="36.11" length="0.48" width="2.50" shape="-61.68,33.90 -61.20,34.12"/>
    </edge>
    <edge id=":31_0" function="internal">
        <lane id=":31_0_0" index="0" disallow="bus truck rail_fast" speed="36.11" length="1.20" width="2.50" shape="-58.44,29.95 -58.36,30.10"/>
        <lane id=":31_0_1" index="1" disallow="bus truck rail_fast" speed="36.11" length="1.20" width="2.50" shape="-59.85,32.02 -58.01,33.29"/>
    </edge>
    <edge id=":32_0" function="internal">
        <lane id=":32_0_0" index="0" disallow="bus truck rail_fast" speed="16.18" length="13.36" width="2.50" shape="-58.19,30.21 -57.34,30.73 -56.55,31.21 -55.80,31.62 -55.10,32.00 -54.42,32.32 -53.78,32.60 -53.17,32.85 -52.57,33.06 -51.98,33.23 -51.40,33.38 -50.83,33.50 -50.25,33.59 -49.65,33.66 -49.05,33.72 -48.42,33.76 -47.77,33.79 -47.09,33.81 -46.36,33.83 -45.60,33.84"/>
    </edge>
    <edge id=":32_1" function="internal">
        <lane id=":32_1_0" index="0" disallow="bus truck rail_fast" speed="36.11" length="12.12" width="2.50" shape="-58.19,30.21 -57.36,30.74 -56.61,31.22 -55.94,31.66 -55.34,32.06 -54.79,32.44 -54.30,32.79 -53.83,33.13 -53.40,33.46 -52.99,33.79 -52.59,34.12 -52.19,34.47 -51.78,34.83 -51.36,35.22 -50.91,35.63 -50.42,36.09 -49.89,36.58 -49.30,37.13 -48.65,37.74 -47.93,38.41"/>
        <lane id=":32_1_1" index="1" disallow="bus truck rail_fast" speed="36.11" length="12.12" width="2.50" shape="-57.84,33.39 -57.14,33.84 -56.52,34.25 -55.96,34.63 -55.46,34.98 -55.01,35.31 -54.60,35.62 -54.23,35.92 -53.87,36.21 -53.54,36.50 -53.21,36.79 -52.89,37.09 -52.56,37.41 -52.21,37.75 -51.84,38.11 -51.44,38.50 -51.00,38.93 -50.51,39.40 -49.97,39.91 -49.36,40.47"/>
    </edge>
    <edge id=":32_3" function="internal">
        <lane id=":32_3_0" index="0" disallow="bus truck rail_fast" speed="5.82" length="8.63" width="2.48" shape="-57.84,33.39 -57.53,33.61 -57.27,33.85 -57.06,34.10 -56.89,34.37 -56.78,34.66 -56.70,34.96 -56.68,35.28 -56.70,35.62 -56.77,35.97 -56.89,36.35 -57.05,36.73 -57.27,37.14 -57.52,37.56 -57.83,38.00 -58.18,38.45 -58.58,38.92 -59.03,39.41 -59.52,39.92 -60.06,40.44"/>
    </edge>
    <edge id=":34_0" function="internal">
        <lane id=":34_0_0" index="0" disallow="bus truck rail_fast" speed="8.42" length="5.44" width="2.49" shape="-157.54,168.85 -157.63,168.46 -157.70,168.10 -157.76,167.77 -157.82,167.47 -157.87,167.19 -157.92,166.93 -157.97,166.69 -158.03,166.46 -158.10,166.24 -158.18,166.03 -158.27,165.83 -158.38,165.63 -158.51,165.44 -158.66,165.24 -158.84,165.05 -159.04,164.84 -159.28,164.63 -159.56,164.40 -159.87,164.16"/>
    </edge>
    <edge id=":34_1" function="internal">
        <lane id=":34_1_0" index="0" disallow="bus truck rail_fast" speed="36.11" length="7.58" width="2.49" shape="-157.54,168.85 -158.99,161.40"/>
    </edge>
    <edge id=":34_2" function="internal">
        <lane id=":34_2_0" index="0" disallow="bus truck rail_fast" speed="7.44" length="6.53" width="2.49" shape="-157.54,168.85 -157.59,168.66 -157.66,168.43 -157.74,168.14 -157.84,167.82 -157.95,167.46 -158.06,167.07 -158.19,166.67 -158.31,166.24 -158.43,165.82 -158.54,165.38 -158.64,164.96 -158.74,164.55 -158.81,164.15 -158.87,163.78 -158.91,163.44 -158.92,163.14 -158.90,162.88 -158.85,162.68 -158.76,162.53"/>
    </edge>
    <edge id=":36_0" function="internal">
        <lane id=":36_0_0" index="0" disallow="bus truck rail_fast" speed="7.10" length="6.57" width="2.50" shape="-39.54,197.26 -39.52,196.66 -39.52,196.09 -39.52,195.55 -39.52,195.04 -39.53,194.55 -39.55,194.10 -39.57,193.67 -39.60,193.28 -39.63,192.91 -39.67,192.58 -39.72,192.27 -39.77,191.99 -39.83,191.74 -39.90,191.52 -39.97,191.32 -40.04,191.16 -40.12,191.03 -40.21,190.92 -40.31,190.85"/>
    </edge>
    <edge id=":36_1" function="internal">
        <lane id=":36_1_0" index="0" disallow="bus truck rail_fast" speed="8.61" length="7.40" width="2.50" shape="-39.54,197.26 -39.52,196.64 -39.49,196.06 -39.46,195.50 -39.42,194.97 -39.37,194.46 -39.32,193.98 -39.26,193.53 -39.19,193.10 -39.12,192.70 -39.04,192.33 -38.95,191.98 -38.86,191.66 -38.76,191.37 -38.66,191.10 -38.54,190.86 -38.42,190.64 -38.30,190.45 -38.16,190.29 -38.02,190.15"/>
    </edge>
    <edge id=":37_0" function="internal">
        <lane id=":37_0_0" index="0" disallow="bus truck rail_fast" speed="36.11" length="5.76" width="2.50" shape="-36.38,191.86 -36.46,192.28 -36.54,192.66 -36.61,193.01 -36.67,193.32 -36.72,193.60 -36.77,193.87 -36.81,194.12 -36.85,194.35 -36.88,194.58 -36.91,194.80 -36.93,195.03 -36.95,195.27 -36.97,195.52 -36.98,195.79 -37.00,196.08 -37.01,196.40 -37.02,196.75 -37.03,197.13 -37.04,197.56"/>
    </edge>
    <edge id=":37_1" function="internal">
        <lane id=":37_1_0" index="0" disallow="bus truck rail_fast" speed="15.53" length="7.51" width="2.50" shape="-38.10,190.25 -37.88,190.76 -37.69,191.22 -37.53,191.64 -37.39,192.03 -37.27,192.39 -37.18,192.72 -37.10,193.04 -37.04,193.34 -37.00,193.64 -36.97,193.94 -36.95,194.24 -36.95,194.56 -36.95,194.89 -36.96,195.25 -36.97,195.63 -36.99,196.05 -37.01,196.50 -37.03,197.01 -37.04,197.56"/>
    </edge>
    <edge id=":39_0" function="internal">
        <lane id=":39_0_0" index="0" disallow="bus truck rail_fast" speed="13.60" length="6.93" width="2.50" shape="33.52,100.62 33.22,101.03 32.95,101.41 32.71,101.76 32.50,102.08 32.32,102.37 32.16,102.65 32.02,102.92 31.90,103.18 31.79,103.44 31.69,103.70 31.61,103.97 31.54,104.25 31.47,104.54 31.41,104.86 31.34,105.21 31.28,105.59 31.22,106.01 31.14,106.47 31.06,106.97"/>
    </edge>
    <edge id=":39_1" function="internal">
        <lane id=":39_1_0" index="0" disallow="bus truck rail_fast" speed="36.11" length="9.76" width="2.50" shape="31.57,97.28 31.64,98.00 31.70,98.66 31.75,99.25 31.79,99.78 31.82,100.27 31.83,100.73 31.83,101.15 31.83,101.55 31.81,101.94 31.78,102.33 31.74,102.72 31.69,103.12 31.63,103.54 31.55,103.99 31.48,104.48 31.39,105.02 31.29,105.60 31.18,106.25 31.06,106.97"/>
    </edge>
    <edge id=":42_0" function="internal">
        <lane id=":42_0_0" index="0" disallow="bus truck rail_fast" speed="9.64" length="7.46" width="2.50" shape="28.76,105.55 28.85,105.02 28.95,104.53 29.06,104.08 29.16,103.66 29.26,103.28 29.36,102.92 29.44,102.58 29.52,102.26 29.58,101.94 29.62,101.64 29.63,101.34 29.62,101.03 29.59,100.71 29.52,100.39 29.42,100.05 29.27,99.68 29.09,99.29 28.86,98.87 28.59,98.41"/>
    </edge>
    <edge id=":42_1" function="internal">
        <lane id=":42_1_0" index="0" disallow="bus truck rail_fast" speed="9.82" length="8.52" width="2.50" shape="28.76,105.55 28.85,104.94 28.91,104.37 28.95,103.85 28.98,103.36 29.00,102.90 29.02,102.47 29.04,102.07 29.06,101.68 29.11,101.32 29.17,100.97 29.25,100.63 29.37,100.30 29.52,99.98 29.71,99.65 29.94,99.32 30.23,98.98 30.57,98.64 30.98,98.28 31.46,97.90"/>
    </edge>
    <edge id=":44_0" function="internal">
        <lane id=":44_0_0" index="0" disallow="bus truck rail_fast" speed="36.11" length="8.28" width="2.50" shape="162.02,-54.87 161.43,-55.07 160.90,-55.24 160.42,-55.39 159.98,-55.53 159.59,-55.65 159.22,-55.76 158.87,-55.86 158.54,-55.94 158.22,-56.02 157.90,-56.10 157.58,-56.17 157.24,-56.24 156.89,-56.31 156.51,-56.39 156.10,-56.46 155.65,-56.55 155.15,-56.64 154.61,-56.74 154.00,-56.85"/>
    </edge>
    <edge id=":44_1" function="internal">
        <lane id=":44_1_0" index="0" disallow="bus truck rail_fast" speed="10.12" length="9.22" width="2.50" shape="162.02,-54.87 161.39,-55.08 160.80,-55.26 160.26,-55.43 159.76,-55.58 159.30,-55.73 158.88,-55.87 158.48,-56.02 158.11,-56.18 157.77,-56.35 157.44,-56.54 157.13,-56.76 156.84,-57.00 156.55,-57.27 156.27,-57.59 155.99,-57.95 155.70,-58.35 155.41,-58.81 155.11,-59.33 154.80,-59.92"/>
    </edge>
    <edge id=":45_0" function="internal">
        <lane id=":45_0_0" index="0" disallow="bus truck rail_fast" speed="13.04" length="6.87" width="2.50" shape="157.00,-60.79 157.35,-60.43 157.67,-60.10 157.96,-59.81 158.24,-59.54 158.49,-59.31 158.73,-59.10 158.97,-58.91 159.20,-58.74 159.43,-58.58 159.66,-58.44 159.91,-58.31 160.17,-58.19 160.44,-58.07 160.74,-57.95 161.07,-57.83 161.43,-57.70 161.83,-57.57 162.26,-57.42 162.74,-57.27"/>
    </edge>
    <edge id=":45_1" function="internal">
        <lane id=":45_1_0" index="0" disallow="bus truck rail_fast" speed="36.11" length="8.83" width="2.50" shape="154.18,-59.36 154.83,-59.24 155.41,-59.13 155.94,-59.04 156.42,-58.95 156.86,-58.86 157.27,-58.79 157.64,-58.71 158.00,-58.64 158.35,-58.56 158.69,-58.48 159.03,-58.40 159.38,-58.31 159.75,-58.20 160.14,-58.09 160.57,-57.96 161.04,-57.82 161.55,-57.65 162.12,-57.47 162.74,-57.27"/>
    </edge>
    <edge id=":47_0" function="internal">
        <lane id=":47_0_0" index="0" disallow="bus truck rail_fast" speed="36.11" length="11.50" width="2.50" shape="-160.03,164.04 -160.64,163.59 -161.21,163.17 -161.74,162.77 -162.25,162.41 -162.72,162.06 -163.18,161.73 -163.62,161.42 -164.06,161.12 -164.48,160.83 -164.91,160.54 -165.34,160.26 -165.78,159.97 -166.24,159.68 -166.71,159.38 -167.21,159.07 -167.74,158.74 -168.31,158.39 -168.92,158.03 -169.57,157.63"/>
    </edge>
    <edge id=":47_1" function="internal">
        <lane id=":47_1_0" index="0" disallow="bus truck rail_fast" speed="36.11" length="11.45" width="2.50" shape="-159.40,162.86 -160.09,162.55 -160.73,162.25 -161.34,161.98 -161.90,161.72 -162.44,161.48 -162.94,161.24 -163.43,161.01 -163.90,160.78 -164.36,160.56 -164.81,160.33 -165.27,160.09 -165.73,159.85 -166.20,159.59 -166.69,159.32 -167.20,159.03 -167.74,158.72 -168.31,158.39 -168.92,158.02 -169.57,157.63"/>
    </edge>
    <edge id=":5_0" function="internal">
        <lane id=":5_0_0" index="0" disallow="bus truck rail_fast" speed="36.11" length="13.24" width="2.50" shape="-116.44,-5.96 -126.56,-14.49"/>
        <lane id=":5_0_1" index="1" disallow="bus truck rail_fast" speed="36.11" length="13.24" width="2.50" shape="-114.83,-7.87 -124.96,-16.41"/>
    </edge>
    <edge id=":5_2" function="internal">
        <lane id=":5_2_0" index="0" disallow="bus truck rail_fast" speed="9.49" length="13.73" width="2.50" shape="-112.75,-11.60 -113.19,-11.42 -113.66,-11.29 -114.14,-11.21 -114.65,-11.17 -115.18,-11.18 -115.73,-11.25 -116.31,-11.35 -116.91,-11.51 -117.53,-11.72 -118.17,-11.97 -118.83,-12.27 -119.52,-12.62 -120.23,-13.02 -120.96,-13.46 -121.72,-13.96 -122.50,-14.50 -123.30,-15.09 -124.12,-15.72 -124.96,-16.41"/>
    </edge>
    <edge id=":50_0" function="internal">
        <lane id=":50_0_0" index="0" disallow="bus truck rail_fast" speed="6.28" length="11.37" width="2.50" shape="-169.12,154.98 -168.26,155.49 -167.44,155.93 -166.66,156.32 -165.92,156.64 -165.23,156.91 -164.58,157.11 -163.98,157.26 -163.42,157.34 -162.90,157.36 -162.42,157.33 -161.99,157.23 -161.59,157.08 -161.25,156.86 -160.94,156.59 -160.68,156.25 -160.46,155.86 -160.28,155.41 -160.15,154.89 -160.06,154.32"/>
    </edge>
    <edge id=":50_1" function="internal">
        <lane id=":50_1_0" index="0" disallow="bus truck rail_fast" speed="36.11" length="10.68" width="2.50" shape="-169.12,154.98 -168.47,155.38 -167.89,155.74 -167.35,156.08 -166.86,156.40 -166.40,156.69 -165.97,156.97 -165.56,157.23 -165.16,157.48 -164.78,157.72 -164.39,157.94 -164.00,158.17 -163.59,158.38 -163.16,158.60 -162.70,158.82 -162.20,159.04 -161.67,159.26 -161.08,159.50 -160.44,159.74 -159.73,160.00"/>
    </edge>
    <edge id=":51_0" function="internal">