<routes>
	<vehicle depart="0.1" departLane="0" departPos="55.34523642045515" departSpeed="0.46325623" id="312" type="bicycle">
		<route edges="46202 45986"/>
	</vehicle>
	<vehicle depart="0.1" departLane="0" departPos="22.10013291453405" departSpeed="2.1415859" id="332" type="bus">
		<route edges="46199 46281"/>
	</vehicle>
	<vehicle depart="0.1" departLane="0" departPos="8.689113162725437" departSpeed="0.79538609" id="39" type="passenger">
		<route edges=":45_6 45986"/>
	</vehicle>
	<vehicle depart="0.1" departLane="0" departPos="14.926951134517674" departSpeed="1.5081113" id="316" type="passenger">
		<route edges=":45_2 45986"/>
	</vehicle>
	<vehicle depart="0.1" departLane="0" departPos="24.25418664956901" departSpeed="1.3842934" id="317" type="passenger">
		<route edges="46200 45986"/>
	</vehicle>
	<vehicle depart="0.1" departLane="0" departPos="27.036170951924074" departSpeed="0.6166375" id="323" type="passenger">
		<route edges=":46_2 46200 45986"/>
	</vehicle>
	<vehicle depart="0.1" departLane="0" departPos="72.49800139380773" departSpeed="3.2835398" id="329" type="passenger">
		<route edges="46202 45986"/>
	</vehicle>
	<vehicle depart="0.1" departLane="0" departPos="39.65757535487127" departSpeed="2.9627496" id="337" type="passenger">
		<route edges=":45_1 46199 46281"/>
	</vehicle>
	<vehicle depart="0.1" departLane="0" departPos="8.795273265171446" departSpeed="5.9629268" id="349" type="passenger">
		<route edges=":45_1 46199"/>
	</vehicle>
	<vehicle depart="0.1" departLane="0" departPos="2.5" departSpeed="0.039117841" id="355" type="passenger">
		<route edges=":45_11 46203"/>
	</vehicle>
</routes>
