<!-- generated on Wed Feb 10 12:32:08 2021 by Eclipse SUMO netconvert Version 1.8.0
<configuration xmlns:xsi="http://www.w3.org/2001/XMLSchema-instance" xsi:noNamespaceSchemaLocation="http://sumo.dlr.de/xsd/netconvertConfiguration.xsd">

    <input>
        <node-files value="./converted_scenarios/SUMO/DEU_Flensburg-25_1_I-1-1/DEU_Flensburg-25_1_I-1-1.nod.xml"/>
        <edge-files value="./converted_scenarios/SUMO/DEU_Flensburg-25_1_I-1-1/DEU_Flensburg-25_1_I-1-1.edg.xml"/>
        <connection-files value="./converted_scenarios/SUMO/DEU_Flensburg-25_1_I-1-1/DEU_Flensburg-25_1_I-1-1.con.xml"/>
        <tllogic-files value="./converted_scenarios/SUMO/DEU_Flensburg-25_1_I-1-1/DEU_Flensburg-25_1_I-1-1.tll.xml"/>
        <type-files value="/home/zen/commonroad-interactive-benchmarks/install/commonroad-map-tool/crmapconverter/sumo_map/templates/DEU.typ.xml"/>
    </input>

    <output>
        <output-file value="./converted_scenarios/SUMO/DEU_Flensburg-25_1_I-1-1/DEU_Flensburg-25_1_I-1-1.net.xml"/>
    </output>

    <processing>
        <geometry.remove.keep-edges.explicit value="true"/>
        <geometry.avoid-overlap value="true"/>
        <offset.disable-normalization value="true"/>
    </processing>

    <junctions>
        <no-turnarounds value="true"/>
        <junctions.internal-link-detail value="20"/>
    </junctions>

    <report>
        <aggregate-warnings value="5"/>
    </report>

    <random_number>
        <seed value="1234"/>
    </random_number>

</configuration>
--><net xmlns:xsi="http://www.w3.org/2001/XMLSchema-instance" version="1.6" junctionCornerDetail="5" junctionLinkDetail="20" limitTurnSpeed="5.50" xsi:noNamespaceSchemaLocation="http://sumo.dlr.de/xsd/net_file.xsd">

    <location netOffset="0.00,0.00" convBoundary="129.89,-385.06,484.86,-184.01" origBoundary="129.89,-385.06,484.86,-184.01" projParameter="!"/>

    <type id="highway.bridleway" priority="1" speed="2.78" allow="pedestrian" oneway="1" width="2.00"/>
    <type id="highway.bus_guideway" priority="1" speed="27.78" allow="bus" oneway="1"/>
    <type id="highway.cycleway" priority="1" speed="8.33" allow="bicycle" oneway="0" width="1.00"/>
    <type id="highway.footway" priority="1" speed="2.78" allow="pedestrian" oneway="1" width="2.00"/>
    <type id="highway.ford" priority="1" speed="2.78" allow="army" oneway="0"/>
    <type id="highway.living_street" priority="2" speed="2.78" disallow="tram rail_urban rail rail_electric rail_fast ship" oneway="0"/>
    <type id="highway.motorway" priority="14" speed="39.44" allow="private emergency authority army vip passenger hov taxi bus coach delivery truck trailer motorcycle evehicle custom1 custom2" oneway="1"/>
    <type id="highway.motorway_link" priority="9" speed="22.22" allow="private emergency authority army vip passenger hov taxi bus coach delivery truck trailer motorcycle evehicle custom1 custom2" oneway="1"/>
    <type id="highway.path" priority="1" speed="2.78" allow="pedestrian bicycle" oneway="0" width="2.00"/>
    <type id="highway.pedestrian" priority="1" speed="2.78" allow="pedestrian" oneway="1" width="2.00"/>
    <type id="highway.primary" priority="12" speed="27.78" disallow="pedestrian tram rail_urban rail rail_electric rail_fast ship" oneway="0"/>
    <type id="highway.primary_link" priority="7" speed="22.22" disallow="pedestrian tram rail_urban rail rail_electric rail_fast ship" oneway="0"/>
    <type id="highway.raceway" priority="15" speed="83.33" allow="vip" oneway="0"/>
    <type id="highway.residential" priority="3" speed="13.89" disallow="pedestrian tram rail_urban rail rail_electric rail_fast ship" oneway="0"/>
    <type id="highway.secondary" priority="11" speed="27.78" disallow="pedestrian tram rail_urban rail rail_electric rail_fast ship" oneway="0"/>
    <type id="highway.secondary_link" priority="6" speed="22.22" disallow="pedestrian tram rail_urban rail rail_electric rail_fast ship" oneway="0"/>
    <type id="highway.service" priority="1" speed="5.56" allow="pedestrian delivery bicycle" oneway="0"/>
    <type id="highway.stairs" priority="1" speed="1.39" allow="pedestrian" oneway="1" width="2.00"/>
    <type id="highway.step" priority="1" speed="1.39" allow="pedestrian" oneway="1" width="2.00"/>
    <type id="highway.steps" priority="1" speed="1.39" allow="pedestrian" oneway="1" width="2.00"/>
    <type id="highway.tertiary" priority="10" speed="22.22" disallow="pedestrian tram rail_urban rail rail_electric rail_fast ship" oneway="0"/>
    <type id="highway.tertiary_link" priority="5" speed="22.22" disallow="pedestrian tram rail_urban rail rail_electric rail_fast ship" oneway="0"/>
    <type id="highway.track" priority="1" speed="5.56" allow="pedestrian motorcycle moped bicycle" oneway="0"/>
    <type id="highway.trunk" priority="13" speed="27.78" disallow="pedestrian bicycle tram rail_urban rail rail_electric rail_fast ship" oneway="0"/>
    <type id="highway.trunk_link" priority="8" speed="22.22" disallow="pedestrian bicycle tram rail_urban rail rail_electric rail_fast ship" oneway="0"/>
    <type id="highway.unclassified" priority="4" speed="13.89" disallow="pedestrian tram rail_urban rail rail_electric rail_fast ship" oneway="0"/>
    <type id="highway.unsurfaced" priority="1" speed="8.33" disallow="tram rail_urban rail rail_electric rail_fast ship" oneway="0"/>
    <type id="railway.highspeed" priority="21" speed="69.44" allow="rail_fast" oneway="1"/>
    <type id="railway.light_rail" priority="19" speed="27.78" allow="rail_urban" oneway="1"/>
    <type id="railway.preserved" priority="16" speed="27.78" allow="rail" oneway="1"/>
    <type id="railway.rail" priority="20" speed="44.44" allow="rail" oneway="1"/>
    <type id="railway.subway" priority="18" speed="27.78" allow="rail_urban" oneway="1"/>
    <type id="railway.tram" priority="17" speed="13.89" allow="tram" oneway="1"/>

    <edge id=":40_0" function="internal">
        <lane id=":40_0_0" index="0" disallow="pedestrian tram rail_urban rail rail_electric rail_fast ship" speed="10.93" length="13.31" width="3.50" shape="164.31,-273.27 163.17,-274.22 161.15,-275.62 159.47,-276.49 157.71,-277.13 155.90,-277.49 154.05,-277.58 152.16,-277.37"/>
    </edge>
    <edge id=":40_1" function="internal">
        <lane id=":40_1_0" index="0" disallow="pedestrian tram rail_urban rail rail_electric rail_fast ship" speed="8.15" length="17.01" width="3.50" shape="164.31,-273.27 163.73,-273.82 162.33,-275.42 161.50,-276.77 160.93,-278.30 160.73,-279.96 160.80,-280.87 160.99,-281.73 161.59,-283.21 162.44,-284.52 163.89,-286.12 165.48,-287.47"/>
    </edge>
    <edge id=":40_2" function="internal">
        <lane id=":40_2_0" index="0" disallow="pedestrian tram rail_urban rail rail_electric rail_fast ship" speed="6.58" length="10.64" width="3.50" shape="167.60,-284.69 167.16,-284.34 166.74,-283.97 166.33,-283.59 165.94,-283.19 165.58,-282.76 165.25,-282.31 164.95,-281.83 164.71,-281.33 164.54,-280.80 164.43,-280.25 164.41,-279.69 164.47,-279.13 164.63,-278.60 164.86,-278.08 165.13,-277.59 165.45,-277.14 165.81,-276.71 166.20,-276.30 166.60,-275.91"/>
    </edge>
    <edge id=":40_3" function="internal">
        <lane id=":40_3_0" index="0" disallow="pedestrian tram rail_urban rail rail_electric rail_fast ship" speed="21.91" length="17.24" width="3.50" shape="167.60,-284.69 164.07,-282.24 160.80,-280.38 157.37,-278.84 154.31,-277.85 152.16,-277.37"/>
    </edge>
    <edge id=":40_4" function="internal">
        <lane id=":40_4_0" index="0" disallow="pedestrian tram rail_urban rail rail_electric rail_fast ship" speed="20.78" length="15.61" width="3.50" shape="151.52,-280.80 153.42,-281.23 156.18,-282.13 159.28,-283.53 162.25,-285.23 165.48,-287.47"/>
    </edge>
    <edge id=":40_5" function="internal">
        <lane id=":40_5_0" index="0" disallow="pedestrian tram rail_urban rail rail_electric rail_fast ship" speed="12.13" length="16.45" width="3.50" shape="151.52,-280.81 153.90,-281.07 156.25,-280.98 158.54,-280.53 160.75,-279.75 162.84,-278.68 165.26,-277.03 166.60,-275.91"/>
    </edge>
    <edge id=":41_0" function="internal">
        <lane id=":41_0_0" index="0" disallow="pedestrian tram rail_urban rail rail_electric rail_fast ship" speed="36.11" length="55.84" width="3.50" shape="465.26,-198.42 460.65,-201.42 454.55,-204.87 446.50,-208.92 436.48,-213.49 423.56,-218.91 414.91,-222.33"/>
    </edge>
    <edge id=":41_1" function="internal">
        <lane id=":41_1_0" index="0" disallow="pedestrian tram rail_urban rail rail_electric rail_fast ship" speed="36.11" length="2.60" width="3.50" shape="417.41,-228.86 419.84,-227.93"/>
        <lane id=":41_1_1" index="1" disallow="pedestrian tram rail_urban rail rail_electric rail_fast ship" speed="36.11" length="1.85" width="3.50" shape="416.16,-225.60 417.88,-224.93"/>
    </edge>
    <edge id=":43_0" function="internal">
        <lane id=":43_0_0" index="0" disallow="pedestrian tram rail_urban rail rail_electric rail_fast ship" speed="13.91" length="18.38" width="3.50" shape="319.85,-279.63 318.53,-280.92 317.05,-281.99 314.96,-283.09 312.72,-283.91 309.87,-284.61 306.94,-285.04 302.88,-285.30"/>
    </edge>
    <edge id=":43_1" function="internal">
        <lane id=":43_1_0" index="0" disallow="pedestrian tram rail_urban rail rail_electric rail_fast ship" speed="36.11" length="22.26" width="3.50" shape="319.85,-279.63 316.44,-283.59 305.62,-296.75"/>
    </edge>
    <edge id=":43_2" function="internal">
        <lane id=":43_2_0" index="0" disallow="pedestrian tram rail_urban rail rail_electric rail_fast ship" speed="36.11" length="21.95" width="3.50" shape="311.05,-301.16 321.80,-288.10 325.08,-284.28"/>
        <lane id=":43_2_1" index="1" disallow="pedestrian tram rail_urban rail rail_electric rail_fast ship" speed="36.11" length="22.10" width="3.50" shape="308.34,-298.96 319.10,-285.86 322.46,-281.96"/>
    </edge>
    <edge id=":43_4" function="internal">
        <lane id=":43_4_0" index="0" disallow="pedestrian tram rail_urban rail rail_electric rail_fast ship" speed="14.91" length="21.18" width="3.50" shape="303.03,-288.80 307.48,-288.50 310.78,-288.00 314.02,-287.16 316.62,-286.17 319.07,-284.85 320.86,-283.53 322.46,-281.96"/>
    </edge>
    <edge id=":44_0" function="internal">
        <lane id=":44_0_0" index="0" disallow="pedestrian tram rail_urban rail rail_electric rail_fast ship" speed="36.11" length="17.91" width="3.50" shape="288.35,-318.16 286.09,-320.94 276.87,-331.90"/>
    </edge>
    <edge id=":44_1" function="internal">
        <lane id=":44_1_0" index="0" disallow="pedestrian tram rail_urban rail rail_electric rail_fast ship" speed="9.11" length="19.96" width="3.50" shape="288.35,-318.16 287.02,-320.07 286.24,-321.63 285.75,-323.30 285.61,-325.04 285.87,-326.76 286.49,-328.39 287.39,-329.88 288.90,-331.64 291.08,-333.56 292.67,-334.69"/>
    </edge>
    <edge id=":44_2" function="internal">
        <lane id=":44_2_0" index="0" disallow="pedestrian tram rail_urban rail rail_electric rail_fast ship" speed="6.89" length="10.84" width="3.50" shape="294.63,-331.79 293.25,-330.67 292.49,-329.76 291.95,-328.71 291.72,-327.55 291.81,-326.37 292.15,-325.24 292.98,-323.67 293.79,-322.56"/>
    </edge>
    <edge id=":44_3" function="internal">
        <lane id=":44_3_0" index="0" disallow="pedestrian tram rail_urban rail rail_electric rail_fast ship" speed="9.82" length="19.74" width="3.50" shape="294.63,-331.79 291.72,-330.06 289.14,-328.92 286.97,-328.31 285.29,-328.09 283.60,-328.13 281.94,-328.46 280.37,-329.08 278.93,-329.97 277.65,-331.07 276.87,-331.90"/>
    </edge>
    <edge id=":44_4" function="internal">
        <lane id=":44_4_0" index="0" disallow="pedestrian tram rail_urban rail rail_electric rail_fast ship" speed="7.76" length="11.89" width="3.50" shape="282.16,-336.48 283.78,-334.90 285.18,-333.96 286.75,-333.34 287.86,-333.17 288.98,-333.21 290.62,-333.62 292.14,-334.36 292.67,-334.69"/>
    </edge>
    <edge id=":44_5" function="internal">
        <lane id=":44_5_0" index="0" disallow="pedestrian tram rail_urban rail rail_electric rail_fast ship" speed="36.11" length="18.14" width="3.50" shape="282.16,-336.48 291.51,-325.37 293.79,-322.56"/>
        <lane id=":44_5_1" index="1" disallow="pedestrian tram rail_urban rail rail_electric rail_fast ship" speed="36.11" length="18.02" width="3.50" shape="279.52,-334.19 288.80,-323.16 291.07,-320.36"/>
    </edge>
    <edge id=":45_0" function="internal">
        <lane id=":45_0_0" index="0" disallow="pedestrian tram rail_urban rail rail_electric rail_fast ship" speed="36.11" length="20.18" width="3.50" shape="336.08,-262.38 334.38,-263.90 329.91,-268.43 322.17,-276.98"/>
    </edge>
    <edge id=":45_1" function="internal">
        <lane id=":45_1_0" index="0" disallow="pedestrian tram rail_urban rail rail_electric rail_fast ship" speed="8.87" length="21.41" width="3.50" shape="336.08,-262.38 334.13,-264.23 332.97,-265.67 332.05,-267.27 331.47,-269.02 331.36,-270.25 331.46,-271.48 331.79,-272.67 332.61,-274.33 333.70,-275.82 335.43,-277.58 338.04,-279.63"/>
    </edge>
    <edge id=":45_2" function="internal">
        <lane id=":45_2_0" index="0" disallow="pedestrian tram rail_urban rail rail_electric rail_fast ship" speed="6.53" length="10.97" width="3.50" shape="340.05,-276.76 339.59,-276.42 339.15,-276.05 338.73,-275.65 338.34,-275.22 338.00,-274.75 337.72,-274.24 337.51,-273.71 337.40,-273.14 337.40,-272.56 337.49,-271.99 337.66,-271.44 337.89,-270.91 338.16,-270.41 338.48,-269.93 338.83,-269.47 339.21,-269.03 339.61,-268.62 340.03,-268.22 340.46,-267.83"/>
    </edge>
    <edge id=":45_3" function="internal">
        <lane id=":45_3_0" index="0" disallow="pedestrian tram rail_urban rail rail_electric rail_fast ship" speed="9.83" length="19.94" width="3.50" shape="340.05,-276.76 337.64,-275.24 335.07,-274.01 332.90,-273.32 331.21,-273.05 329.50,-273.03 327.82,-273.30 326.21,-273.87 324.72,-274.71 323.38,-275.76 322.17,-276.98"/>
    </edge>
    <edge id=":45_4" function="internal">
        <lane id=":45_4_0" index="0" disallow="pedestrian tram rail_urban rail rail_electric rail_fast ship" speed="7.77" length="12.09" width="3.50" shape="327.41,-281.63 329.06,-280.01 330.47,-279.03 332.04,-278.35 333.17,-278.14 334.31,-278.14 335.44,-278.35 337.03,-279.00 338.04,-279.63"/>
    </edge>
    <edge id=":45_5" function="internal">
        <lane id=":45_5_0" index="0" disallow="pedestrian tram rail_urban rail rail_electric rail_fast ship" speed="36.11" length="19.00" width="3.50" shape="327.41,-281.63 334.86,-273.38 339.08,-269.09 340.46,-267.83"/>
        <lane id=":45_5_1" index="1" disallow="pedestrian tram rail_urban rail rail_electric rail_fast ship" speed="36.11" length="19.58" width="3.50" shape="324.79,-279.30 332.45,-270.84 336.82,-266.41 338.27,-265.11"/>
    </edge>

    <edge id="1798" from="41" to="42" priority="3" type="highway.residential" spreadType="center" length="52.67" shape="433.50,-219.25 468.38,-207.33">
        <lane id="1798_0" index="0" disallow="pedestrian tram rail_urban rail rail_electric rail_fast ship" speed="36.11" length="52.67" width="3.50" customShape="1" shape="419.84,-227.93 468.41,-209.18 468.98,-208.97"/>
        <lane id="1798_1" index="1" disallow="pedestrian tram rail_urban rail rail_electric rail_fast ship" speed="36.11" length="53.49" width="3.50" customShape="1" shape="417.88,-224.93 467.24,-205.88 467.79,-205.68"/>
    </edge>
    <edge id="230" from="44" to="20" priority="3" type="highway.residential" spreadType="center" length="70.01" shape="285.90,-329.16 296.23,-385.06">
        <lane id="230_0" index="0" disallow="pedestrian tram rail_urban rail rail_electric rail_fast ship" speed="36.11" length="70.01" width="3.50" customShape="1" shape="292.67,-334.69 296.86,-337.46 301.04,-340.25 305.15,-343.13 309.13,-346.20 312.89,-349.52 316.40,-353.12 318.04,-357.49 315.19,-361.56 311.66,-365.13 308.41,-368.95 305.36,-372.96 302.34,-376.97 299.32,-380.98 296.23,-385.06"/>
    </edge>
    <edge id="231" from="35" to="44" priority="3" type="highway.residential" spreadType="center" length="70.03" shape="302.67,-382.34 289.31,-328.42">
        <lane id="231_0" index="0" disallow="pedestrian tram rail_urban rail rail_electric rail_fast ship" speed="36.11" length="70.03" width="3.50" customShape="1" shape="302.67,-382.34 309.75,-372.96 314.15,-367.56 318.75,-362.89 320.12,-361.13 320.99,-359.62 321.51,-358.35 321.77,-356.86 321.68,-355.30 321.26,-353.93 320.56,-352.71 317.76,-349.44 314.43,-346.16 310.50,-342.80 305.56,-339.12 294.60,-331.78"/>
    </edge>
    <edge id="240" from="38" to="41" priority="3" type="highway.residential" spreadType="center" length="78.57" shape="484.86,-184.01 431.78,-214.36">
        <lane id="240_0" index="0" disallow="pedestrian tram rail_urban rail rail_electric rail_fast ship" speed="36.11" length="78.57" width="3.50" customShape="1" shape="484.86,-184.01 475.06,-191.21 421.57,-230.56"/>
    </edge>
    <edge id="637" from="40" to="43" priority="3" type="highway.residential" spreadType="center" length="157.69" shape="161.18,-281.67 310.51,-290.50">
        <lane id="637_0" index="0" disallow="pedestrian tram rail_urban rail rail_electric rail_fast ship" speed="36.11" length="157.69" width="3.50" customShape="1" shape="165.48,-287.47 185.44,-302.56 203.26,-316.30 206.19,-319.09 208.03,-320.53 209.69,-321.41 211.42,-322.00 213.77,-322.45 216.12,-322.56 218.97,-322.33 221.71,-321.75 224.30,-320.83 228.11,-319.00 232.62,-316.49 237.34,-313.42 243.86,-308.61 251.07,-303.29 255.61,-300.34 259.94,-297.94 264.43,-295.83 269.54,-293.82 273.76,-292.45 278.56,-291.33 283.41,-290.55 296.99,-289.12 303.07,-288.80"/>
    </edge>
    <edge id="638" from="43" to="40" priority="3" type="highway.residential" spreadType="center" length="155.24" shape="310.71,-287.01 161.38,-278.18">
        <lane id="638_0" index="0" disallow="pedestrian tram rail_urban rail rail_electric rail_fast ship" speed="36.11" length="155.24" width="3.50" customShape="1" shape="302.88,-285.30 296.70,-285.63 282.95,-287.08 277.88,-287.90 272.82,-289.08 268.35,-290.53 263.04,-292.62 258.34,-294.83 253.80,-297.35 249.08,-300.42 241.77,-305.81 235.35,-310.54 230.82,-313.49 226.50,-315.89 222.97,-317.60 220.77,-318.38 218.49,-318.87 216.08,-319.07 214.20,-318.98 212.36,-318.63 211.08,-318.20 209.97,-317.62 208.52,-316.48 205.50,-313.62 187.56,-299.78 167.59,-284.68"/>
    </edge>
    <edge id="685" from="44" to="23" priority="3" type="highway.residential" spreadType="center" length="51.58" shape="286.43,-327.62 243.13,-370.91">
        <lane id="685_0" index="0" disallow="pedestrian tram rail_urban rail rail_electric rail_fast ship" speed="36.11" length="51.58" width="3.50" customShape="1" shape="276.87,-331.90 260.01,-351.40 243.13,-370.91"/>
    </edge>
    <edge id="687" from="24" to="44" priority="3" type="highway.residential" spreadType="center" length="51.56" shape="247.11,-374.33 290.24,-331.22">
        <lane id="687_0" index="0" disallow="pedestrian tram rail_urban rail rail_electric rail_fast ship" speed="36.11" length="51.56" width="3.50" customShape="1" shape="248.44,-375.48 265.30,-355.98 282.17,-336.48"/>
        <lane id="687_1" index="1" disallow="pedestrian tram rail_urban rail rail_electric rail_fast ship" speed="36.11" length="51.58" width="3.50" customShape="1" shape="245.79,-373.19 262.65,-353.69 279.53,-334.18"/>
    </edge>
    <edge id="689" from="43" to="44" priority="3" type="highway.residential" spreadType="center" length="27.52" shape="309.07,-287.88 286.08,-328.08">
        <lane id="689_0" index="0" disallow="pedestrian tram rail_urban rail rail_electric rail_fast ship" speed="36.11" length="27.52" width="3.50" customShape="1" shape="305.62,-296.75 296.98,-307.46 288.34,-318.17"/>
    </edge>
    <edge id="691" from="44" to="43" priority="3" type="highway.residential" spreadType="center" length="27.51" shape="290.53,-330.85 313.63,-290.49">
        <lane id="691_0" index="0" disallow="pedestrian tram rail_urban rail rail_electric rail_fast ship" speed="36.11" length="27.51" width="3.50" customShape="1" shape="293.79,-322.56 302.43,-311.86 311.07,-301.15"/>
        <lane id="691_1" index="1" disallow="pedestrian tram rail_urban rail rail_electric rail_fast ship" speed="36.11" length="27.51" width="3.50" customShape="1" shape="291.07,-320.36 299.70,-309.66 308.34,-298.95"/>
    </edge>
    <edge id="693" from="45" to="43" priority="3" type="highway.residential" spreadType="center" length="3.56" shape="332.97,-272.47 309.65,-287.27">
        <lane id="693_0" index="0" disallow="pedestrian tram rail_urban rail rail_electric rail_fast ship" speed="36.11" length="3.56" width="3.50" customShape="1" shape="322.17,-276.98 320.99,-278.33 319.83,-279.66"/>
    </edge>
    <edge id="695" from="43" to="45" priority="3" type="highway.residential" spreadType="center" length="3.56" shape="312.46,-291.70 336.05,-276.70">
        <lane id="695_0" index="0" disallow="pedestrian tram rail_urban rail rail_electric rail_fast ship" speed="36.11" length="3.56" width="3.50" customShape="1" shape="325.08,-284.28 326.25,-282.95 327.43,-281.60"/>
        <lane id="695_1" index="1" disallow="pedestrian tram rail_urban rail rail_electric rail_fast ship" speed="36.11" length="3.56" width="3.50" customShape="1" shape="322.45,-281.97 323.62,-280.64 324.80,-279.29"/>
    </edge>
    <edge id="697" from="41" to="45" priority="3" type="highway.residential" spreadType="center" length="88.96" shape="431.80,-214.34 332.91,-272.51">
        <lane id="697_0" index="0" disallow="pedestrian tram rail_urban rail rail_electric rail_fast ship" speed="36.11" length="88.96" width="3.50" customShape="1" shape="414.91,-222.33 390.98,-231.49 378.75,-236.47 368.52,-241.04 362.84,-243.87 356.91,-247.30 351.64,-250.72 340.82,-258.56 336.08,-262.38"/>
    </edge>
    <edge id="699" from="45" to="41" priority="3" type="highway.residential" spreadType="center" length="86.78" shape="335.50,-277.08 434.46,-218.87">
        <lane id="699_0" index="0" disallow="pedestrian tram rail_urban rail rail_electric rail_fast ship" speed="36.11" length="86.78" width="3.50" customShape="1" shape="340.46,-267.83 345.02,-264.17 355.57,-256.51 360.50,-253.30 366.10,-250.07 371.46,-247.39 381.47,-242.92 393.52,-238.01 417.41,-228.86"/>
        <lane id="699_1" index="1" disallow="pedestrian tram rail_urban rail rail_electric rail_fast ship" speed="36.11" length="87.87" width="3.50" customShape="1" shape="338.27,-265.11 342.94,-261.35 353.62,-253.60 358.73,-250.28 364.50,-246.96 370.01,-244.21 380.12,-239.69 392.26,-234.75 416.16,-225.60"/>
    </edge>
    <edge id="733" from="40" to="15" priority="3" type="highway.residential" spreadType="center" length="31.13" shape="162.45,-278.62 133.04,-254.48">
        <lane id="733_0" index="0" disallow="pedestrian tram rail_urban rail rail_electric rail_fast ship" speed="36.11" length="31.13" width="3.50" customShape="1" shape="152.16,-277.37 151.71,-277.28 149.42,-276.71 147.75,-276.05 146.21,-275.15 144.77,-274.00 143.47,-272.68 141.99,-270.80 138.70,-265.70 136.94,-262.72 133.04,-254.48"/>
    </edge>
    <edge id="734" from="18" to="40" priority="3" type="highway.residential" spreadType="center" length="34.43" shape="129.89,-256.01 160.22,-281.32">
        <lane id="734_0" index="0" disallow="pedestrian tram rail_urban rail rail_electric rail_fast ship" speed="36.11" length="34.43" width="3.50" customShape="1" shape="129.89,-256.01 133.85,-264.36 135.74,-267.56 139.16,-272.85 140.87,-275.01 142.45,-276.62 144.25,-278.04 146.25,-279.21 148.38,-280.05 151.02,-280.71 151.55,-280.81"/>
    </edge>
    <edge id="745" from="33" to="45" priority="3" type="highway.residential" spreadType="center" length="69.30" shape="396.93,-316.32 334.79,-272.56">
        <lane id="745_0" index="0" disallow="pedestrian tram rail_urban rail rail_electric rail_fast ship" speed="36.11" length="69.30" width="3.50" customShape="1" shape="396.93,-316.32 368.49,-296.54 340.04,-276.75"/>
    </edge>
    <edge id="746" from="45" to="3" priority="3" type="highway.residential" spreadType="center" length="69.29" shape="332.77,-275.41 394.93,-319.19">
        <lane id="746_0" index="0" disallow="pedestrian tram rail_urban rail rail_electric rail_fast ship" speed="36.11" length="69.29" width="3.50" customShape="1" shape="338.04,-279.63 366.49,-299.41 394.93,-319.19"/>
    </edge>
    <edge id="887" from="4" to="40" priority="3" type="highway.residential" spreadType="center" length="70.00" shape="222.23,-234.30 160.23,-278.52">
        <lane id="887_0" index="0" disallow="pedestrian tram rail_urban rail rail_electric rail_fast ship" speed="36.11" length="70.00" width="3.50" customShape="1" shape="222.23,-234.30 219.01,-236.13 204.65,-244.36 194.37,-250.66 185.50,-256.53 178.10,-261.86 171.65,-266.92 164.29,-273.29"/>
    </edge>
    <edge id="888" from="40" to="10" priority="3" type="highway.residential" spreadType="center" length="70.00" shape="162.26,-281.37 224.59,-236.99">
        <lane id="888_0" index="0" disallow="pedestrian tram rail_urban rail rail_electric rail_fast ship" speed="36.11" length="70.00" width="3.50" customShape="1" shape="166.60,-275.91 173.87,-269.62 180.20,-264.66 187.48,-259.41 196.25,-253.62 206.44,-247.37 220.73,-239.17 224.59,-236.99"/>
    </edge>

    <junction id="10" type="dead_end" x="224.59" y="-236.99" incLanes="888_0" intLanes="" shape="225.45,-238.51 223.73,-235.47" rightOfWay="edgePriority"/>
    <junction id="15" type="dead_end" x="133.04" y="-254.48" incLanes="733_0" intLanes="" shape="134.62,-253.74 131.46,-255.23" rightOfWay="edgePriority"/>
    <junction id="18" type="dead_end" x="129.89" y="-256.01" incLanes="" intLanes="" shape="131.47,-255.26 128.31,-256.76" rightOfWay="edgePriority"/>
    <junction id="20" type="dead_end" x="296.23" y="-385.06" incLanes="230_0" intLanes="" shape="294.83,-384.00 297.62,-386.12" rightOfWay="edgePriority"/>
    <junction id="23" type="dead_end" x="243.13" y="-370.91" incLanes="685_0" intLanes="" shape="241.81,-369.76 244.46,-372.05" rightOfWay="edgePriority"/>
    <junction id="24" type="dead_end" x="247.11" y="-374.33" incLanes="" intLanes="" shape="244.47,-372.04 249.76,-376.62" rightOfWay="edgePriority"/>
    <junction id="3" type="dead_end" x="394.93" y="-319.19" incLanes="746_0" intLanes="" shape="393.93,-320.63 395.93,-317.75" rightOfWay="edgePriority"/>
    <junction id="33" type="dead_end" x="396.93" y="-316.32" incLanes="" intLanes="" shape="395.93,-317.75 397.93,-314.88" rightOfWay="edgePriority"/>
    <junction id="35" type="dead_end" x="302.67" y="-382.34" incLanes="" intLanes="" shape="301.28,-381.28 304.07,-383.39" rightOfWay="edgePriority"/>
    <junction id="38" type="dead_end" x="484.86" y="-184.01" incLanes="" intLanes="" shape="485.89,-185.41 483.82,-182.60" rightOfWay="edgePriority"/>
    <junction id="4" type="dead_end" x="222.23" y="-234.30" incLanes="" intLanes="" shape="223.09,-235.83 221.37,-232.78" rightOfWay="edgePriority"/>
    <junction id="40" type="priority" x="161.28" y="-279.92" incLanes="887_0 638_0 734_0" intLanes=":40_0_0 :40_1_0 :40_2_0 :40_3_0 :40_4_0 :40_5_0" shape="163.17,-271.94 167.75,-277.23 166.38,-279.18 166.32,-280.18 166.67,-281.20 167.45,-282.24 168.64,-283.29 164.42,-288.87 161.91,-286.96 160.00,-285.56 158.32,-284.54 156.53,-283.78 154.27,-283.15 151.19,-282.52 152.49,-275.65 156.01,-275.68 157.79,-275.22 159.57,-274.44 161.37,-273.35">
        <request index="0" response="001000" foes="001000" cont="0"/>
        <request index="1" response="111000" foes="111000" cont="0"/>
        <request index="2" response="000000" foes="100000" cont="0"/>
        <request index="3" response="000000" foes="100011" cont="0"/>
        <request index="4" response="000000" foes="000010" cont="0"/>
        <request index="5" response="001100" foes="001110" cont="0"/>
    </junction>
    <junction id="41" type="priority" x="432.69" y="-215.85" incLanes="240_0 699_0 699_1" intLanes=":41_0_0 :41_1_0 :41_1_1" shape="420.61,-229.09 420.82,-229.42 418.04,-230.50 414.28,-220.69">
        <request index="0" response="000" foes="000" cont="0"/>
        <request index="1" response="000" foes="000" cont="0"/>
        <request index="2" response="000" foes="000" cont="0"/>
    </junction>
    <junction id="42" type="dead_end" x="468.38" y="-207.33" incLanes="1798_0 1798_1" intLanes="" shape="469.57,-210.62 467.19,-204.04"/>
    <junction id="43" type="priority" x="310.59" y="-288.75" incLanes="693_0 691_0 691_1 637_0" intLanes=":43_0_0 :43_1_0 :43_2_0 :43_2_1 :43_4_0" shape="318.51,-278.50 326.39,-285.43 312.43,-302.25 304.26,-295.66 305.44,-294.01 306.07,-292.69 306.16,-291.68 305.71,-290.98 304.71,-290.60 303.16,-290.54 302.79,-283.56 306.52,-283.24 309.80,-282.71 312.64,-281.98 315.04,-281.03 317.00,-279.87">
        <request index="0" response="00000" foes="00000" cont="0"/>
        <request index="1" response="00000" foes="10000" cont="0"/>
        <request index="2" response="00000" foes="10000" cont="0"/>
        <request index="3" response="00000" foes="10000" cont="0"/>
        <request index="4" response="01110" foes="01110" cont="0"/>
    </junction>
    <junction id="44" type="priority" x="287.63" y="-328.89" incLanes="689_0 231_0 687_0 687_1" intLanes=":44_0_0 :44_1_0 :44_2_0 :44_3_0 :44_4_0 :44_5_0 :44_5_1" shape="286.99,-317.06 295.16,-323.66 293.71,-326.24 293.59,-327.40 293.85,-328.46 294.51,-329.44 295.57,-330.32 291.71,-336.15 288.83,-335.02 287.44,-335.06 286.09,-335.51 284.77,-336.36 283.49,-337.62 275.55,-330.76">
        <request index="0" response="0000000" foes="0001000" cont="0"/>
        <request index="1" response="1110000" foes="1111000" cont="0"/>
        <request index="2" response="1100000" foes="1100000" cont="0"/>
        <request index="3" response="1100011" foes="1100011" cont="0"/>
        <request index="4" response="0000000" foes="0000010" cont="0"/>
        <request index="5" response="0000000" foes="0001110" cont="0"/>