<routes>
	<vehicle depart="0.1" departLane="0" departPos="26.198385012558035" departSpeed="0.48095584" id="31" type="passenger">
		<route edges=":25_4 21062"/>
	</vehicle>
	<vehicle depart="0.1" departLane="0" departPos="69.90191160107891" departSpeed="0.0" id="35" type="passenger">
		<route edges="21342 21433"/>
	</vehicle>
	<vehicle depart="0.1" departLane="0" departPos="62.66322105963506" departSpeed="6.5908275e-05" id="38" type="passenger">
		<route edges="21342 21433"/>
	</vehicle>
	<vehicle depart="0.1" departLane="0" departPos="55.42380271905827" departSpeed="0.0008972867" id="318" type="passenger">
		<route edges="21342 21433"/>
	</vehicle>
	<vehicle depart="0.1" departLane="0" departPos="47.916829082534356" departSpeed="0.0056398025" id="324" type="passenger">
		<route edges="21342 21433"/>
	</vehicle>
	<vehicle depart="0.1" departLane="0" departPos="40.39100696357792" departSpeed="0.025060241" id="330" type="passenger">
		<route edges="21342 21433"/>
	</vehicle>
	<vehicle depart="0.1" departLane="0" departPos="29.82682989831293" departSpeed="12.142425" id="338" type="passenger">
		<route edges=":25_11 21341"/>
	</vehicle>
	<vehicle depart="0.1" departLane="0" departPos="24.004964113055017" departSpeed="16.491285" id="341" type="passenger">
		<route edges="21063 21066"/>
	</vehicle>
	<vehicle depart="0.1" departLane="0" departPos="22.585167343933197" departSpeed="0.23226909" id="347" type="passenger">
		<route edges="21342 21433"/>
	</vehicle>
	<vehicle depart="0.1" departLane="0" departPos="32.80662962416598" departSpeed="0.084208164" id="340" type="truck">
		<route edges="21342 21433"/>
	</vehicle>
</routes>
