<routes>
	<vehicle depart="0.1" departLane="0" departPos="10.268098938347732" departSpeed="8.6234623" id="33" type="passenger">
		<route edges=":47_4 66431"/>
	</vehicle>
	<vehicle depart="0.1" departLane="0" departPos="23.875433350321142" departSpeed="1.3442757" id="37" type="passenger">
		<route edges="66070 66313"/>
	</vehicle>
	<vehicle depart="0.1" departLane="0" departPos="35.72612857695304" departSpeed="7.4362567" id="314" type="passenger">
		<route edges="66316 66071 66086"/>
	</vehicle>
	<vehicle depart="0.1" departLane="0" departPos="12.409362102677742" departSpeed="1.3005509" id="316" type="passenger">
		<route edges="66070 66313"/>
	</vehicle>
	<vehicle depart="0.1" departLane="0" departPos="29.69248461631886" departSpeed="16.549122" id="334" type="passenger">
		<route edges=":46_3 66317 66320"/>
	</vehicle>
	<vehicle depart="0.1" departLane="0" departPos="10.141232613599412" departSpeed="14.080502" id="347" type="passenger">
		<route edges=":46_2 66071 66095"/>
	</vehicle>
	<vehicle depart="0.1" departLane="0" departPos="11.3169645302691" departSpeed="11.184923" id="359" type="passenger">
		<route edges=":47_2 66310"/>
	</vehicle>
	<vehicle depart="0.1" departLane="0" departPos="41.61010922417902" departSpeed="7.6795872" id="364" type="passenger">
		<route edges="66430 66310"/>
	</vehicle>
	<vehicle depart="0.1" departLane="0" departPos="28.63685373739982" departSpeed="6.8547664" id="367" type="passenger">
		<route edges="66430 66310"/>
	</vehicle>
	<vehicle depart="0.1" departLane="0" departPos="70.00066881384997" departSpeed="0.0" id="325" type="truck">
		<route edges="66311 66431"/>
	</vehicle>
</routes>
