<routes>
	<vehicle depart="0.1" departLane="0" departPos="5.38937542337972" departSpeed="0.0" id="316" type="bicycle">
		<route edges="44720 45314"/>
	</vehicle>
	<vehicle depart="0.1" departLane="0" departPos="55.37819535485249" departSpeed="0.0" id="34" type="passenger">
		<route edges="44706 44721"/>
	</vehicle>
	<vehicle depart="0.1" departLane="0" departPos="47.87730161205215" departSpeed="0.0" id="37" type="passenger">
		<route edges="44706 44721"/>
	</vehicle>
	<vehicle depart="0.1" departLane="0" departPos="2.5" departSpeed="0.28261306" id="314" type="passenger">
		<route edges=":15_8 45314"/>
	</vehicle>
	<vehicle depart="0.1" departLane="0" departPos="9.398125330340672" departSpeed="7.3544486" id="325" type="passenger">
		<route edges=":15_1 44721"/>
	</vehicle>
	<vehicle depart="0.1" departLane="0" departPos="54.376761793123805" departSpeed="6.0583855" id="329" type="passenger">
		<route edges="44718 44721"/>
	</vehicle>
	<vehicle depart="0.1" departLane="0" departPos="11.197530489289598" departSpeed="5.6935794" id="330" type="passenger">
		<route edges="44718 44705"/>
	</vehicle>
	<vehicle depart="0.1" departLane="0" departPos="68.68118539556846" departSpeed="5.2534753" id="328" type="motorcycle">
		<route edges="44718 44705"/>
	</vehicle>
	<vehicle depart="0.1" departLane="0" departPos="46.2996724739412" departSpeed="5.1947618" id="324" type="truck">
		<route edges=":15_2 44705"/>
	</vehicle>
</routes>
