<!-- generated on Tue Feb  9 22:08:50 2021 by Eclipse SUMO netconvert Version 1.8.0
<configuration xmlns:xsi="http://www.w3.org/2001/XMLSchema-instance" xsi:noNamespaceSchemaLocation="http://sumo.dlr.de/xsd/netconvertConfiguration.xsd">

    <input>
        <node-files value="./converted_scenarios/scenario-factory/DEU_Backnang-9_1_I-1-1/DEU_Backnang-9_1_I-1-1.nod.xml"/>
        <edge-files value="./converted_scenarios/scenario-factory/DEU_Backnang-9_1_I-1-1/DEU_Backnang-9_1_I-1-1.edg.xml"/>
        <connection-files value="./converted_scenarios/scenario-factory/DEU_Backnang-9_1_I-1-1/DEU_Backnang-9_1_I-1-1.con.xml"/>
        <tllogic-files value="./converted_scenarios/scenario-factory/DEU_Backnang-9_1_I-1-1/DEU_Backnang-9_1_I-1-1.tll.xml"/>
        <type-files value="/home/zen/commonroad-interactive-benchmarks/install/commonroad-map-tool/crmapconverter/sumo_map/templates/DEU.typ.xml"/>
    </input>

    <output>
        <output-file value="./converted_scenarios/scenario-factory/DEU_Backnang-9_1_I-1-1/DEU_Backnang-9_1_I-1-1.net.xml"/>
    </output>

    <processing>
        <geometry.remove.keep-edges.explicit value="true"/>
        <geometry.avoid-overlap value="true"/>
        <offset.disable-normalization value="true"/>
    </processing>

    <junctions>
        <no-turnarounds value="true"/>
        <junctions.internal-link-detail value="20"/>
    </junctions>

    <report>
        <aggregate-warnings value="5"/>
    </report>

    <random_number>
        <seed value="1234"/>
    </random_number>

</configuration>
--><net xmlns:xsi="http://www.w3.org/2001/XMLSchema-instance" version="1.6" junctionCornerDetail="5" junctionLinkDetail="20" limitTurnSpeed="5.50" xsi:noNamespaceSchemaLocation="http://sumo.dlr.de/xsd/net_file.xsd">

    <location netOffset="0.00,0.00" convBoundary="-189.90,-290.12,-74.05,-117.39" origBoundary="-189.90,-290.12,-74.05,-117.39" projParameter="!"/>

    <type id="highway.bridleway" priority="1" speed="2.78" allow="pedestrian" oneway="1" width="2.00"/>
    <type id="highway.bus_guideway" priority="1" speed="27.78" allow="bus" oneway="1"/>
    <type id="highway.cycleway" priority="1" speed="8.33" allow="bicycle" oneway="0" width="1.00"/>
    <type id="highway.footway" priority="1" speed="2.78" allow="pedestrian" oneway="1" width="2.00"/>
    <type id="highway.ford" priority="1" speed="2.78" allow="army" oneway="0"/>
    <type id="highway.living_street" priority="2" speed="2.78" disallow="tram rail_urban rail rail_electric rail_fast ship" oneway="0"/>
    <type id="highway.motorway" priority="14" speed="39.44" allow="private emergency authority army vip passenger hov taxi bus coach delivery truck trailer motorcycle evehicle custom1 custom2" oneway="1"/>
    <type id="highway.motorway_link" priority="9" speed="22.22" allow="private emergency authority army vip passenger hov taxi bus coach delivery truck trailer motorcycle evehicle custom1 custom2" oneway="1"/>
    <type id="highway.path" priority="1" speed="2.78" allow="pedestrian bicycle" oneway="0" width="2.00"/>
    <type id="highway.pedestrian" priority="1" speed="2.78" allow="pedestrian" oneway="1" width="2.00"/>
    <type id="highway.primary" priority="12" speed="27.78" disallow="pedestrian tram rail_urban rail rail_electric rail_fast ship" oneway="0"/>
    <type id="highway.primary_link" priority="7" speed="22.22" disallow="pedestrian tram rail_urban rail rail_electric rail_fast ship" oneway="0"/>
    <type id="highway.raceway" priority="15" speed="83.33" allow="vip" oneway="0"/>
    <type id="highway.residential" priority="3" speed="13.89" disallow="pedestrian tram rail_urban rail rail_electric rail_fast ship" oneway="0"/>
    <type id="highway.secondary" priority="11" speed="27.78" disallow="pedestrian tram rail_urban rail rail_electric rail_fast ship" oneway="0"/>
    <type id="highway.secondary_link" priority="6" speed="22.22" disallow="pedestrian tram rail_urban rail rail_electric rail_fast ship" oneway="0"/>
    <type id="highway.service" priority="1" speed="5.56" allow="pedestrian delivery bicycle" oneway="0"/>
    <type id="highway.stairs" priority="1" speed="1.39" allow="pedestrian" oneway="1" width="2.00"/>
    <type id="highway.step" priority="1" speed="1.39" allow="pedestrian" oneway="1" width="2.00"/>
    <type id="highway.steps" priority="1" speed="1.39" allow="pedestrian" oneway="1" width="2.00"/>
    <type id="highway.tertiary" priority="10" speed="22.22" disallow="pedestrian tram rail_urban rail rail_electric rail_fast ship" oneway="0"/>
    <type id="highway.tertiary_link" priority="5" speed="22.22" disallow="pedestrian tram rail_urban rail rail_electric rail_fast ship" oneway="0"/>
    <type id="highway.track" priority="1" speed="5.56" allow="pedestrian motorcycle moped bicycle" oneway="0"/>
    <type id="highway.trunk" priority="13" speed="27.78" disallow="pedestrian bicycle tram rail_urban rail rail_electric rail_fast ship" oneway="0"/>
    <type id="highway.trunk_link" priority="8" speed="22.22" disallow="pedestrian bicycle tram rail_urban rail rail_electric rail_fast ship" oneway="0"/>
    <type id="highway.unclassified" priority="4" speed="13.89" disallow="pedestrian tram rail_urban rail rail_electric rail_fast ship" oneway="0"/>
    <type id="highway.unsurfaced" priority="1" speed="8.33" disallow="tram rail_urban rail rail_electric rail_fast ship" oneway="0"/>
    <type id="railway.highspeed" priority="21" speed="69.44" allow="rail_fast" oneway="1"/>
    <type id="railway.light_rail" priority="19" speed="27.78" allow="rail_urban" oneway="1"/>
    <type id="railway.preserved" priority="16" speed="27.78" allow="rail" oneway="1"/>
    <type id="railway.rail" priority="20" speed="44.44" allow="rail" oneway="1"/>
    <type id="railway.subway" priority="18" speed="27.78" allow="rail_urban" oneway="1"/>
    <type id="railway.tram" priority="17" speed="13.89" allow="tram" oneway="1"/>

    <edge id=":15_0" function="internal">
        <lane id=":15_0_0" index="0" disallow="pedestrian tram rail_urban rail rail_electric rail_fast ship" speed="10.22" length="33.93" width="3.50" shape="-133.71,-201.11 -137.82,-202.49 -141.33,-203.31 -144.20,-203.63 -146.37,-203.56 -147.79,-203.30 -149.15,-202.82 -150.40,-202.10 -151.46,-201.12 -152.30,-199.95 -152.90,-198.64 -153.44,-196.54 -153.65,-194.38 -153.57,-191.50 -153.09,-187.92 -152.82,-186.50"/>
    </edge>
    <edge id=":15_1" function="internal">
        <lane id=":15_1_0" index="0" disallow="pedestrian tram rail_urban rail rail_electric rail_fast ship" speed="36.11" length="47.82" width="3.50" shape="-133.71,-201.11 -145.19,-205.27 -154.87,-208.41 -163.67,-210.93 -171.59,-212.84 -178.59,-214.18 -179.58,-214.34"/>
    </edge>
    <edge id=":15_2" function="internal">
        <lane id=":15_2_0" index="0" disallow="pedestrian tram rail_urban rail rail_electric rail_fast ship" speed="16.56" length="45.40" width="3.50" shape="-133.71,-201.11 -135.84,-201.96 -139.98,-203.87 -143.01,-205.53 -145.92,-207.41 -148.68,-209.53 -151.26,-211.90 -153.59,-214.53 -155.63,-217.41 -157.32,-220.51 -158.65,-223.79 -159.59,-227.18 -160.17,-230.64 -160.42,-234.14"/>
    </edge>
    <edge id=":15_3" function="internal">
        <lane id=":15_3_0" index="0" disallow="pedestrian tram rail_urban rail rail_electric rail_fast ship" speed="15.80" length="41.23" width="3.50" shape="-156.92,-234.22 -156.70,-231.05 -156.17,-227.93 -155.31,-224.87 -154.10,-221.94 -152.56,-219.16 -150.72,-216.59 -148.60,-214.22 -146.26,-212.09 -143.73,-210.17 -141.06,-208.45 -138.28,-206.93 -134.43,-205.16 -132.48,-204.38"/>
    </edge>
    <edge id=":15_4" function="internal">
        <lane id=":15_4_0" index="0" disallow="pedestrian tram rail_urban rail rail_electric rail_fast ship" speed="36.11" length="30.86" width="3.50" shape="-156.92,-234.22 -156.39,-219.59 -155.60,-207.50 -155.19,-203.42"/>
    </edge>
    <edge id=":15_5" function="internal">
        <lane id=":15_5_0" index="0" disallow="pedestrian tram rail_urban rail rail_electric rail_fast ship" speed="11.91" length="36.25" width="3.50" shape="-156.92,-234.22 -157.03,-230.04 -157.37,-227.27 -158.01,-224.55 -158.45,-223.23 -159.00,-221.95 -159.66,-220.72 -160.43,-219.55 -161.31,-218.47 -162.31,-217.50 -163.41,-216.64 -164.59,-215.90 -165.85,-215.29 -167.15,-214.81 -168.50,-214.43 -171.25,-213.98 -174.03,-213.86 -176.82,-214.00 -179.58,-214.34"/>
    </edge>
    <edge id=":15_6" function="internal">
        <lane id=":15_6_0" index="0" disallow="pedestrian tram rail_urban rail rail_electric rail_fast ship" speed="10.89" length="30.07" width="3.50" shape="-179.14,-217.81 -176.65,-217.50 -174.25,-217.38 -171.90,-217.48 -169.59,-217.86 -168.53,-218.16 -167.49,-218.54 -166.50,-219.02 -165.58,-219.60 -164.73,-220.26 -163.96,-221.01 -163.27,-221.85 -162.67,-222.77 -162.14,-223.75 -161.70,-224.79 -161.34,-225.85 -160.80,-228.15 -160.51,-230.50 -160.42,-234.14"/>
    </edge>
    <edge id=":15_7" function="internal">
        <lane id=":15_7_0" index="0" disallow="pedestrian tram rail_urban rail rail_electric rail_fast ship" speed="36.11" length="48.64" width="3.50" shape="-179.14,-217.81 -178.01,-217.63 -170.89,-216.27 -162.84,-214.33 -153.90,-211.78 -144.09,-208.59 -132.48,-204.38"/>
    </edge>
    <edge id=":15_8" function="internal">
        <lane id=":15_8_0" index="0" disallow="pedestrian tram rail_urban rail rail_electric rail_fast ship" speed="12.39" length="26.53" width="3.50" shape="-179.14,-217.82 -175.88,-217.13 -172.81,-216.11 -170.36,-214.97 -168.04,-213.59 -165.88,-211.97 -163.52,-209.75 -161.42,-207.29 -159.58,-204.62 -158.53,-202.75"/>
    </edge>

    <edge id="44705" from="15" to="3" priority="3" type="highway.residential" spreadType="center" length="56.18" shape="-158.18,-213.20 -156.93,-290.12">
        <lane id="44705_0" index="0" disallow="pedestrian tram rail_urban rail rail_electric rail_fast ship" speed="36.11" length="56.18" width="3.50" customShape="1" shape="-160.42,-234.14 -160.51,-239.24 -160.37,-253.03 -159.97,-264.26 -159.29,-273.43 -158.35,-281.55 -156.93,-290.12"/>
    </edge>
    <edge id="44706" from="7" to="15" priority="3" type="highway.residential" spreadType="center" length="55.48" shape="-153.49,-289.48 -154.68,-213.15">
        <lane id="44706_0" index="0" disallow="pedestrian tram rail_urban rail rail_electric rail_fast ship" speed="36.11" length="55.48" width="3.50" customShape="1" shape="-153.49,-289.48 -154.88,-281.04 -155.81,-273.06 -156.47,-264.01 -156.87,-252.91 -157.01,-239.26 -156.92,-234.20"/>
    </edge>
    <edge id="44717" from="15" to="10" priority="3" type="highway.residential" spreadType="center" length="70.00" shape="-155.57,-214.74 -74.05,-166.93">
        <lane id="44717_0" index="0" disallow="pedestrian tram rail_urban rail rail_electric rail_fast ship" speed="36.11" length="70.00" width="3.50" customShape="1" shape="-132.48,-204.38 -128.21,-202.75 -119.77,-199.30 -113.35,-196.30 -108.00,-193.41 -102.41,-189.95 -96.57,-185.92 -90.14,-180.99 -82.78,-174.80 -74.05,-166.93"/>
    </edge>
    <edge id="44718" from="11" to="15" priority="3" type="highway.residential" spreadType="center" length="70.02" shape="-75.42,-163.45 -157.34,-211.72">
        <lane id="44718_0" index="0" disallow="pedestrian tram rail_urban rail rail_electric rail_fast ship" speed="36.11" length="70.02" width="3.50" customShape="1" shape="-75.42,-163.45 -84.91,-172.01 -92.16,-178.13 -98.48,-182.98 -104.19,-186.94 -109.67,-190.33 -114.89,-193.15 -121.18,-196.10 -129.50,-199.50 -133.73,-201.12"/>
    </edge>
    <edge id="44720" from="12" to="15" priority="3" type="highway.residential" spreadType="center" length="10.76" shape="-189.76,-218.89 -156.13,-214.94">
        <lane id="44720_0" index="0" disallow="pedestrian tram rail_urban rail rail_electric rail_fast ship" speed="36.11" length="10.76" width="3.50" customShape="1" shape="-189.76,-218.89 -184.93,-218.56 -179.06,-217.80"/>
    </edge>
    <edge id="44721" from="15" to="14" priority="3" type="highway.residential" spreadType="center" length="10.38" shape="-156.54,-211.47 -189.90,-215.39">
        <lane id="44721_0" index="0" disallow="pedestrian tram rail_urban rail rail_electric rail_fast ship" speed="36.11" length="10.38" width="3.50" customShape="1" shape="-179.58,-214.34 -185.26,-215.07 -189.90,-215.39"/>
    </edge>
    <edge id="45314" from="15" to="5" priority="3" type="highway.residential" spreadType="center" length="87.06">
        <lane id="45314_0" index="0" disallow="pedestrian tram rail_urban rail rail_electric rail_fast ship" speed="36.11" length="87.06" width="3.50" customShape="1" shape="-156.20,-203.22 -148.63,-165.78 -146.26,-152.41 -144.52,-140.46 -142.51,-123.47 -142.00,-117.39"/>
    </edge>

    <junction id="10" type="dead_end" x="-74.05" y="-166.93" incLanes="44717_0" intLanes="" shape="-72.88,-168.23 -75.22,-165.63" rightOfWay="edgePriority"/>
    <junction id="11" type="dead_end" x="-75.42" y="-163.45" incLanes="" intLanes="" shape="-74.25,-164.75 -76.60,-162.16" rightOfWay="edgePriority"/>
    <junction id="12" type="dead_end" x="-189.76" y="-218.89" incLanes="" intLanes="" shape="-189.88,-217.14 -189.64,-220.63" rightOfWay="edgePriority"/>
    <junction id="14" type="dead_end" x="-189.90" y="-215.39" incLanes="44721_0" intLanes="" shape="-190.02,-213.65 -189.78,-217.14" rightOfWay="edgePriority"/>
    <junction id="15" type="priority" x="-156.43" y="-213.21" incLanes="44718_0 44706_0 44720_0" intLanes=":15_0_0 :15_1_0 :15_2_0 :15_3_0 :15_4_0 :15_5_0 :15_6_0 :15_7_0 :15_8_0" shape="-157.91,-202.87 -154.48,-203.57 -151.93,-204.87 -148.66,-204.28 -144.46,-203.08 -139.59,-201.43 -134.35,-199.48 -131.85,-206.02 -138.88,-209.24 -144.66,-213.06 -149.17,-217.47 -152.43,-222.46 -154.43,-228.05 -155.17,-234.23 -162.17,-234.10 -162.55,-229.05 -163.90,-225.04 -166.21,-222.09 -169.48,-220.19 -173.72,-219.34 -178.91,-219.55 -179.81,-212.61 -173.51,-211.60 -168.28,-210.35 -164.10,-208.86 -160.98,-207.11 -158.92,-205.12">
        <request index="0" response="000000000" foes="100010000" cont="0"/>
        <request index="1" response="000000000" foes="100110000" cont="0"/>
        <request index="2" response="011000000" foes="011110000" cont="0"/>
        <request index="3" response="010000000" foes="010000000" cont="0"/>
        <request index="4" response="110000111" foes="110000111" cont="0"/>
        <request index="5" response="110000110" foes="110000110" cont="0"/>
        <request index="6" response="000000000" foes="000000100" cont="0"/>
        <request index="7" response="000000000" foes="000111100" cont="0"/>
        <request index="8" response="000000011" foes="000110011" cont="0"/>
    </junction>
    <junction id="3" type="dead_end" x="-156.93" y="-290.12" incLanes="44705_0" intLanes="" shape="-158.66,-290.40 -155.21,-289.83" rightOfWay="edgePriority"/>
    <junction id="5" type="dead_end" x="-142.00" y="-117.39" incLanes="45314_0" intLanes="" shape="-140.26,-117.54 -143.74,-117.24" rightOfWay="edgePriority"/>
    <junction id="7" type="dead_end" x="-153.49" y="-289.48" incLanes="" intLanes="" shape="-155.22,-289.76 -151.77,-289.20" rightOfWay="edgePriority"/>

    <connection from="44706" to="44717" fromLane="0" toLane="0" contPos="-4.00" shape="-156.92,-234.22 -156.70,-231.05 -156.17,-227.93 -155.31,-224.87 -154.10,-221.94 -152.56,-219.16 -150.72,-216.59 -148.60,-214.22 -146.26,-212.09 -143.73,-210.17 -141.06,-208.45 -138.28,-206.93 -134.43,-205.16 -132.48,-204.38" via=":15_3_0" dir="r" state="m"/>
    <connection from="44706" to="45314" fromLane="0" toLane="0" contPos="-4.00" shape="-156.92,-234.22 -156.39,-219.59 -155.60,-207.50 -154.64,-197.96 -153.56,-190.47 -152.82,-186.50" via=":15_4_0" dir="s" state="m"/>
    <connection from="44706" to="44721" fromLane="0" toLane="0" contPos="-4.00" shape="-156.92,-234.22 -157.03,-230.04 -157.37,-227.27 -158.01,-224.55 -158.45,-223.23 -159.00,-221.95 -159.66,-220.72 -160.43,-219.55 -161.31,-218.47 -162.31,-217.50 -163.41,-216.64 -164.59,-215.90 -165.85,-215.29 -167.15,-214.81 -168.50,-214.43 -171.25,-213.98 -174.03,-213.86 -176.82,-214.00 -179.58,-214.34" via=":15_5_0" dir="l" state="m"/>
    <connection from="44718" to="45314" fromLane="0" toLane="0" contPos="-4.00" shape="-133.71,-201.11 -137.82,-202.49 -141.33,-203.31 -144.20,-203.63 -146.37,-203.56 -147.79,-203.30 -149.15,-202.82 -150.40,-202.10 -151.46,-201.12 -152.30,-199.95 -152.90,-198.64 -153.44,-196.54 -153.65,-194.38 -153.57,-191.50 -153.09,-187.92 -152.82,-186.50" via=":15_0_0" dir="r" state="M"/>
    <connection from="44718" to="44721" fromLane="0" toLane="0" contPos="-4.00" shape="-133.71,-201.11 -145.19,-205.27 -154.87,-208.41 -163.67,-210.93 -171.59,-212.84 -178.59,-214.18 -179.58,-214.34" via=":15_1_0" dir="s" state="M"/>
    <connection from="44718" to="44705" fromLane="0" toLane="0" contPos="-4.00" shape="-133.71,-201.11 -135.84,-201.96 -139.98,-203.87 -143.01,-205.53 -145.92,-207.41 -148.68,-209.53 -151.26,-211.90 -153.59,-214.53 -155.63,-217.41 -157.32,-220.51 -158.65,-223.79 -159.59,-227.18 -160.17,-230.64 -160.42,-234.14" via=":15_2_0" dir="l" state="m"/>
    <connection from="44720" to="44705" fromLane="0" toLane="0" contPos="-4.00" shape="-179.06,-217.80 -176.65,-217.50 -174.25,-217.38 -171.90,-217.48 -169.59,-217.86 -168.53,-218.16 -167.49,-218.54 -166.50,-219.02 -165.58,-219.60 -164.73,-220.26 -163.96,-221.01 -163.27,-221.85 -162.67,-222.77 -162.14,-223.75 -161.70,-224.79 -161.34,-225.85 -160.80,-228.15 -160.51,-230.50 -160.42,-234.14" via=":15_6_0" dir="r" state="M"/>
    <connection from="44720" to="44717" fromLane="0" toLane="0" contPos="-4.00" shape="-179.06,-217.80 -178.01,-217.63 -170.89,-216.27 -162.84,-214.33 -153.90,-211.78 -144.09,-208.59 -132.48,-204.38" via=":15_7_0" dir="s" state="M"/>
    <connection from="44720" to="45314" fromLane="0" toLane="0" contPos="-4.00" shape="-179.06,-217.80 -175.88,-217.13 -172.81,-216.11 -170.36,-214.97 -168.04,-213.59 -165.88,-211.97 -163.52,-209.75 -161.42,-207.29 -159.58,-204.62 -157.74,-201.32 -155.98,-197.37 -154.40,-192.78 -153.04,-187.55 -152.82,-186.50" via=":15_8_0" dir="l" state="m"/>

    <connection from=":15_0" to="45314" fromLane="0" toLane="0" dir="r" state="M"/>
    <connection from=":15_1" to="44721" fromLane="0" toLane="0" dir="s" state="M"/>
    <connection from=":15_2" to="44705" fromLane="0" toLane="0" dir="l" state="M"/>
    <connection from=":15_3" to="44717" fromLane="0" toLane="0" dir="r" state="M"/>
    <connection from=":15_4" to="45314" fromLane="0" toLane="0" dir="s" state="M"/>
    <connection from=":15_5" to="44721" fromLane="0" toLane="0" dir="l" state="M"/>
    <connection from=":15_6" to="44705" fromLane="0" toLane="0" dir="r" state="M"/>
    <connection from=":15_7" to="44717" fromLane="0" toLane="0" dir="s" state="M"/>
    <connection from=":15_8" to="45314" fromLane="0" toLane="0" dir="l" state="M"/>

</net>