<!-- generated on Tue Feb  9 22:01:36 2021 by Eclipse SUMO netconvert Version 1.8.0
<configuration xmlns:xsi="http://www.w3.org/2001/XMLSchema-instance" xsi:noNamespaceSchemaLocation="http://sumo.dlr.de/xsd/netconvertConfiguration.xsd">

    <input>
        <node-files value="./converted_scenarios/scenario-factory/FRA_Miramas-7_3_I-1-1/FRA_Miramas-7_3_I-1-1.nod.xml"/>
        <edge-files value="./converted_scenarios/scenario-factory/FRA_Miramas-7_3_I-1-1/FRA_Miramas-7_3_I-1-1.edg.xml"/>
        <connection-files value="./converted_scenarios/scenario-factory/FRA_Miramas-7_3_I-1-1/FRA_Miramas-7_3_I-1-1.con.xml"/>
        <tllogic-files value="./converted_scenarios/scenario-factory/FRA_Miramas-7_3_I-1-1/FRA_Miramas-7_3_I-1-1.tll.xml"/>
        <type-files value="/home/zen/commonroad-interactive-benchmarks/install/commonroad-map-tool/crmapconverter/sumo_map/templates/DEU.typ.xml"/>
    </input>

    <output>
        <output-file value="./converted_scenarios/scenario-factory/FRA_Miramas-7_3_I-1-1/FRA_Miramas-7_3_I-1-1.net.xml"/>
    </output>

    <processing>
        <geometry.remove.keep-edges.explicit value="true"/>
        <geometry.avoid-overlap value="true"/>
        <offset.disable-normalization value="true"/>
    </processing>

    <junctions>
        <no-turnarounds value="true"/>
        <junctions.internal-link-detail value="20"/>
    </junctions>

    <report>
        <aggregate-warnings value="5"/>
    </report>

    <random_number>
        <seed value="1234"/>
    </random_number>

</configuration>
--><net xmlns:xsi="http://www.w3.org/2001/XMLSchema-instance" version="1.6" junctionCornerDetail="5" junctionLinkDetail="20" limitTurnSpeed="5.50" xsi:noNamespaceSchemaLocation="http://sumo.dlr.de/xsd/net_file.xsd">

    <location netOffset="0.00,0.00" convBoundary="28.77,600.59,166.77,878.97" origBoundary="27.38,600.59,166.77,878.97" projParameter="!"/>

    <type id="highway.bridleway" priority="1" speed="2.78" allow="pedestrian" oneway="1" width="2.00"/>
    <type id="highway.bus_guideway" priority="1" speed="27.78" allow="bus" oneway="1"/>
    <type id="highway.cycleway" priority="1" speed="8.33" allow="bicycle" oneway="0" width="1.00"/>
    <type id="highway.footway" priority="1" speed="2.78" allow="pedestrian" oneway="1" width="2.00"/>
    <type id="highway.ford" priority="1" speed="2.78" allow="army" oneway="0"/>
    <type id="highway.living_street" priority="2" speed="2.78" disallow="tram rail_urban rail rail_electric rail_fast ship" oneway="0"/>
    <type id="highway.motorway" priority="14" speed="39.44" allow="private emergency authority army vip passenger hov taxi bus coach delivery truck trailer motorcycle evehicle custom1 custom2" oneway="1"/>
    <type id="highway.motorway_link" priority="9" speed="22.22" allow="private emergency authority army vip passenger hov taxi bus coach delivery truck trailer motorcycle evehicle custom1 custom2" oneway="1"/>
    <type id="highway.path" priority="1" speed="2.78" allow="pedestrian bicycle" oneway="0" width="2.00"/>
    <type id="highway.pedestrian" priority="1" speed="2.78" allow="pedestrian" oneway="1" width="2.00"/>
    <type id="highway.primary" priority="12" speed="27.78" disallow="pedestrian tram rail_urban rail rail_electric rail_fast ship" oneway="0"/>
    <type id="highway.primary_link" priority="7" speed="22.22" disallow="pedestrian tram rail_urban rail rail_electric rail_fast ship" oneway="0"/>
    <type id="highway.raceway" priority="15" speed="83.33" allow="vip" oneway="0"/>
    <type id="highway.residential" priority="3" speed="13.89" disallow="pedestrian tram rail_urban rail rail_electric rail_fast ship" oneway="0"/>
    <type id="highway.secondary" priority="11" speed="27.78" disallow="pedestrian tram rail_urban rail rail_electric rail_fast ship" oneway="0"/>
    <type id="highway.secondary_link" priority="6" speed="22.22" disallow="pedestrian tram rail_urban rail rail_electric rail_fast ship" oneway="0"/>
    <type id="highway.service" priority="1" speed="5.56" allow="pedestrian delivery bicycle" oneway="0"/>
    <type id="highway.stairs" priority="1" speed="1.39" allow="pedestrian" oneway="1" width="2.00"/>
    <type id="highway.step" priority="1" speed="1.39" allow="pedestrian" oneway="1" width="2.00"/>
    <type id="highway.steps" priority="1" speed="1.39" allow="pedestrian" oneway="1" width="2.00"/>
    <type id="highway.tertiary" priority="10" speed="22.22" disallow="pedestrian tram rail_urban rail rail_electric rail_fast ship" oneway="0"/>
    <type id="highway.tertiary_link" priority="5" speed="22.22" disallow="pedestrian tram rail_urban rail rail_electric rail_fast ship" oneway="0"/>
    <type id="highway.track" priority="1" speed="5.56" allow="pedestrian motorcycle moped bicycle" oneway="0"/>
    <type id="highway.trunk" priority="13" speed="27.78" disallow="pedestrian bicycle tram rail_urban rail rail_electric rail_fast ship" oneway="0"/>
    <type id="highway.trunk_link" priority="8" speed="22.22" disallow="pedestrian bicycle tram rail_urban rail rail_electric rail_fast ship" oneway="0"/>
    <type id="highway.unclassified" priority="4" speed="13.89" disallow="pedestrian tram rail_urban rail rail_electric rail_fast ship" oneway="0"/>
    <type id="highway.unsurfaced" priority="1" speed="8.33" disallow="tram rail_urban rail rail_electric rail_fast ship" oneway="0"/>
    <type id="railway.highspeed" priority="21" speed="69.44" allow="rail_fast" oneway="1"/>
    <type id="railway.light_rail" priority="19" speed="27.78" allow="rail_urban" oneway="1"/>
    <type id="railway.preserved" priority="16" speed="27.78" allow="rail" oneway="1"/>
    <type id="railway.rail" priority="20" speed="44.44" allow="rail" oneway="1"/>
    <type id="railway.subway" priority="18" speed="27.78" allow="rail_urban" oneway="1"/>
    <type id="railway.tram" priority="17" speed="13.89" allow="tram" oneway="1"/>

    <edge id=":48_0" function="internal">
        <lane id=":48_0_0" index="0" disallow="pedestrian tram rail_urban rail rail_electric rail_fast ship" speed="36.11" length="6.24" width="3.50" shape="33.10,661.74 32.92,662.17 32.76,662.56 32.61,662.91 32.47,663.23 32.35,663.51 32.23,663.78 32.12,664.03 32.01,664.27 31.92,664.50 31.83,664.73 31.74,664.96 31.66,665.21 31.57,665.47 31.49,665.74 31.41,666.05 31.33,666.38 31.25,666.75 31.16,667.16 31.07,667.62"/>
    </edge>
    <edge id=":54_0" function="internal">
        <lane id=":54_0_0" index="0" disallow="pedestrian tram rail_urban rail rail_electric rail_fast ship" speed="36.11" length="37.72" width="3.50" shape="133.15,725.34 130.56,731.98 128.62,737.78 127.00,743.68 125.93,748.67 125.13,753.70 124.65,758.78 124.52,761.84"/>
    </edge>
    <edge id=":54_1" function="internal">
        <lane id=":54_1_0" index="0" disallow="pedestrian tram rail_urban rail rail_electric rail_fast ship" speed="12.08" length="35.06" width="3.50" shape="133.15,725.34 132.62,726.54 130.85,729.96 129.40,732.19 127.72,734.27 125.78,736.12 124.65,736.98 123.47,737.72 122.22,738.35 120.90,738.86 119.54,739.24 118.16,739.48 116.77,739.60 115.36,739.58 112.69,739.25 110.09,738.57 107.62,737.64 105.26,736.51"/>
    </edge>
    <edge id=":54_2" function="internal">
        <lane id=":54_2_0" index="0" disallow="pedestrian tram rail_urban rail rail_electric rail_fast ship" speed="11.06" length="29.17" width="3.50" shape="106.86,733.40 108.91,734.38 111.01,735.17 113.18,735.73 115.40,736.00 116.53,736.00 117.64,735.90 118.75,735.70 119.82,735.39 120.87,734.98 121.86,734.46 122.81,733.86 123.70,733.18 125.31,731.62 126.72,729.88 127.94,727.99 129.48,725.00 129.92,723.98"/>
    </edge>
    <edge id=":54_3" function="internal">
        <lane id=":54_3_0" index="0" disallow="pedestrian tram rail_urban rail rail_electric rail_fast ship" speed="15.35" length="35.48" width="3.50" shape="106.86,733.40 109.96,735.18 112.87,737.20 115.57,739.50 118.00,742.08 119.44,743.95 120.72,745.94 121.81,748.04 122.72,750.22 123.72,753.62 124.31,757.12 124.53,760.65 124.52,761.84"/>
    </edge>
    <edge id=":54_4" function="internal">
        <lane id=":54_4_0" index="0" disallow="pedestrian tram rail_urban rail rail_electric rail_fast ship" speed="14.50" length="31.59" width="3.50" shape="121.02,761.79 121.03,760.73 120.84,757.54 120.31,754.43 119.41,751.41 118.61,749.51 117.65,747.67 116.52,745.91 115.26,744.27 113.08,741.97 110.67,739.93 108.04,738.11 105.26,736.51"/>
    </edge>
    <edge id=":54_5" function="internal">
        <lane id=":54_5_0" index="0" disallow="pedestrian tram rail_urban rail rail_electric rail_fast ship" speed="36.11" length="39.07" width="3.50" shape="121.02,761.79 121.15,758.57 121.65,753.31 122.48,748.08 123.59,742.91 125.26,736.82 127.25,730.82 129.92,723.98"/>
    </edge>
    <edge id=":55_0" function="internal">
        <lane id=":55_0_0" index="0" disallow="pedestrian tram rail_urban rail rail_electric rail_fast ship" speed="19.76" length="31.29" width="3.50" shape="59.45,700.43 58.02,697.75 56.36,695.22 54.48,692.84 52.41,690.63 50.19,688.58 47.00,686.10 43.63,683.89 40.10,681.93 36.46,680.19"/>
    </edge>
    <edge id=":55_1" function="internal">
        <lane id=":55_1_0" index="0" disallow="pedestrian tram rail_urban rail rail_electric rail_fast ship" speed="18.04" length="33.48" width="3.50" shape="59.45,700.43 58.19,697.32 57.31,694.09 56.80,690.79 56.65,687.45 56.83,684.11 57.29,680.80 58.00,677.53 59.27,673.25 60.85,669.08 61.30,668.03"/>
    </edge>
    <edge id=":55_2" function="internal">
        <lane id=":55_2_0" index="0" disallow="pedestrian tram rail_urban rail rail_electric rail_fast ship" speed="17.23" length="30.56" width="3.50" shape="64.53,669.36 64.10,670.39 62.62,674.28 61.43,678.24 60.77,681.23 60.33,684.25 60.16,687.28 60.27,690.30 60.71,693.26 61.48,696.14 62.61,698.92"/>
    </edge>
    <edge id=":55_3" function="internal">
        <lane id=":55_3_0" index="0" disallow="pedestrian tram rail_urban rail rail_electric rail_fast ship" speed="12.14" length="34.60" width="3.50" shape="64.54,669.36 62.72,673.01 61.30,675.25 59.65,677.33 57.74,679.18 56.70,679.99 55.59,680.72 54.42,681.35 53.20,681.87 51.94,682.29 50.64,682.59 49.33,682.78 46.68,682.85 44.04,682.57 41.45,681.99 38.92,681.18 36.46,680.19"/>
    </edge>
    <edge id=":55_4" function="internal">
        <lane id=":55_4_0" index="0" disallow="pedestrian tram rail_urban rail rail_electric rail_fast ship" speed="11.13" length="28.93" width="3.50" shape="37.87,676.99 40.02,677.86 42.20,678.56 44.40,679.05 46.61,679.29 48.82,679.23 49.86,679.07 50.90,678.83 51.91,678.51 52.88,678.09 53.82,677.58 54.72,677.00 55.55,676.36 57.14,674.81 58.53,673.06 59.74,671.16 61.30,668.03"/>
    </edge>
    <edge id=":55_5" function="internal">
        <lane id=":55_5_0" index="0" disallow="pedestrian tram rail_urban rail rail_electric rail_fast ship" speed="20.56" length="33.77" width="3.50" shape="37.87,676.99 41.76,678.85 45.52,680.95 49.14,683.33 52.56,686.01 54.97,688.24 57.20,690.64 59.24,693.23 61.05,695.99 62.61,698.92"/>
    </edge>
    <edge id=":56_0" function="internal">
        <lane id=":56_0_0" index="0" disallow="pedestrian tram rail_urban rail rail_electric rail_fast ship" speed="36.11" length="30.57" width="3.50" shape="67.60,729.34 61.08,741.39 52.87,756.13"/>
    </edge>
    <edge id=":56_1" function="internal">
        <lane id=":56_1_0" index="0" disallow="pedestrian tram rail_urban rail rail_electric rail_fast ship" speed="10.95" length="28.67" width="3.50" shape="67.60,729.34 66.88,730.55 66.01,731.71 64.96,732.75 63.76,733.65 62.43,734.34 61.02,734.82 59.59,735.10 58.17,735.20 56.78,735.15 55.42,734.99 54.08,734.72 51.57,733.99 49.14,733.05 45.71,731.39 42.41,729.49"/>
    </edge>
    <edge id=":56_2" function="internal">
        <lane id=":56_2_0" index="0" disallow="pedestrian tram rail_urban rail rail_electric rail_fast ship" speed="9.82" length="22.91" width="3.50" shape="44.23,726.51 47.08,728.15 50.00,729.61 52.02,730.44 54.09,731.11 55.15,731.37 56.23,731.55 57.31,731.66 58.40,731.66 59.49,731.53 60.54,731.26 61.54,730.83 62.45,730.24 63.26,729.50 63.94,728.65 64.50,727.71"/>
    </edge>
    <edge id=":56_3" function="internal">
        <lane id=":56_3_0" index="0" disallow="pedestrian tram rail_urban rail rail_electric rail_fast ship" speed="12.55" length="35.02" width="3.50" shape="44.23,726.51 47.46,728.70 49.47,730.34 51.33,732.15 52.98,734.15 54.36,736.34 54.94,737.50 55.42,738.71 55.80,739.94 56.09,741.21 56.27,742.49 56.34,745.08 56.04,747.66 55.42,750.18 54.55,752.62 52.87,756.13"/>
    </edge>
    <edge id=":56_4" function="internal">
        <lane id=":56_4_0" index="0" disallow="pedestrian tram rail_urban rail rail_electric rail_fast ship" speed="11.57" length="29.64" width="3.50" shape="49.79,754.47 51.27,751.38 52.01,749.30 52.53,747.17 52.77,745.03 52.71,742.87 52.56,741.85 52.32,740.83 52.01,739.82 51.61,738.84 51.15,737.91 49.98,736.06 48.58,734.38 46.99,732.83 45.26,731.42 42.41,729.49"/>
    </edge>
    <edge id=":56_5" function="internal">
        <lane id=":56_5_0" index="0" disallow="pedestrian tram rail_urban rail rail_electric rail_fast ship" speed="36.11" length="30.54" width="3.50" shape="49.79,754.47 58.00,739.72 64.50,727.71"/>
    </edge>
    <edge id=":57_0" function="internal">
        <lane id=":57_0_0" index="0" disallow="pedestrian tram rail_urban rail rail_electric rail_fast ship" speed="9.78" length="21.03" width="3.50" shape="86.46,727.16 83.55,725.95 81.56,725.28 79.52,724.75 77.45,724.41 76.40,724.34 75.34,724.34 74.30,724.43 73.26,724.63 72.26,724.93 71.30,725.37 70.41,725.92 69.59,726.59 68.88,727.36 68.25,728.21 67.72,729.11"/>
    </edge>
    <edge id=":57_1" function="internal">
        <lane id=":57_1_0" index="0" disallow="pedestrian tram rail_urban rail rail_electric rail_fast ship" speed="20.80" length="32.35" width="3.50" shape="86.46,727.16 85.45,726.69 80.59,724.20 76.80,721.91 73.18,719.35 70.60,717.20 68.19,714.86 65.97,712.29 64.02,709.51 62.37,706.53"/>
    </edge>
    <edge id=":57_2" function="internal">
        <lane id=":57_2_0" index="0" disallow="pedestrian tram rail_urban rail rail_electric rail_fast ship" speed="20.01" length="29.92" width="3.50" shape="65.52,705.01 67.02,707.72 68.81,710.24 70.84,712.58 73.08,714.72 75.47,716.69 78.84,719.07 82.39,721.19 86.98,723.54 87.91,723.97"/>
    </edge>
    <edge id=":57_3" function="internal">
        <lane id=":57_3_0" index="0" disallow="pedestrian tram rail_urban rail rail_electric rail_fast ship" speed="14.56" length="25.09" width="3.50" shape="65.52,705.01 66.97,708.29 68.18,711.66 69.10,715.13 69.50,717.48 69.69,719.86 69.64,722.25 69.31,724.62 68.67,726.92 67.72,729.11"/>
    </edge>
    <edge id=":57_4" function="internal">
        <lane id=":57_4_0" index="0" disallow="pedestrian tram rail_urban rail rail_electric rail_fast ship" speed="13.40" length="21.85" width="3.50" shape="64.61,727.51 65.40,725.69 65.91,723.76 66.17,721.76 66.18,719.71 65.99,717.65 65.62,715.60 64.78,712.51 63.68,709.48 62.37,706.53"/>
    </edge>
    <edge id=":57_5" function="internal">
        <lane id=":57_5_0" index="0" disallow="pedestrian tram rail_urban rail rail_electric rail_fast ship" speed="10.99" length="26.39" width="3.50" shape="64.61,727.51 65.29,726.33 66.09,725.22 67.01,724.19 68.06,723.26 69.22,722.46 70.48,721.82 71.79,721.35 73.13,721.03 74.47,720.85 75.81,720.80 77.15,720.85 79.67,721.20 82.13,721.79 84.51,722.57 87.91,723.97"/>
    </edge>
    <edge id=":58_0" function="internal">
        <lane id=":58_0_0" index="0" disallow="pedestrian tram rail_urban rail rail_electric rail_fast ship" speed="15.09" length="32.52" width="3.50" shape="89.89,647.92 83.81,648.72 81.77,649.25 79.79,649.98 77.89,650.90 76.10,652.01 74.42,653.30 72.88,654.73 70.81,657.12 69.01,659.73 67.48,662.50 66.16,665.38 65.76,666.37"/>
    </edge>
    <edge id=":58_1" function="internal">
        <lane id=":58_1_0" index="0" disallow="pedestrian tram rail_urban rail rail_electric rail_fast ship" speed="13.12" length="37.89" width="3.50" shape="89.89,647.92 83.36,648.59 80.80,648.58 78.22,648.32 75.66,647.76 73.20,646.85 71.97,646.24 70.83,645.54 69.74,644.75 68.72,643.87 67.76,642.90 66.13,640.84 64.80,638.59 63.74,636.23 62.91,633.80 62.04,630.14"/>
    </edge>
    <edge id=":58_2" function="internal">
        <lane id=":58_2_0" index="0" disallow="pedestrian tram rail_urban rail rail_electric rail_fast ship" speed="36.11" length="4.02" width="3.50" shape="65.49,629.52 65.54,629.81 65.59,630.08 65.63,630.32 65.67,630.54 65.71,630.74 65.75,630.92 65.78,631.09 65.82,631.26 65.86,631.41 65.90,631.57 65.94,631.72 65.98,631.88 66.03,632.05 66.09,632.23 66.15,632.42 66.22,632.64 66.30,632.87 66.38,633.13 66.48,633.41"/>
    </edge>
    <edge id=":58_3" function="internal">
        <lane id=":58_3_0" index="0" disallow="pedestrian tram rail_urban rail rail_electric rail_fast ship" speed="25.86" length="37.27" width="3.50" shape="65.48,629.49 66.69,636.84 67.45,643.19 67.83,648.50 67.88,653.82 67.62,658.07 67.17,661.23 66.45,664.34 65.76,666.37"/>
    </edge>
    <edge id=":58_4" function="internal">
        <lane id=":58_4_0" index="0" disallow="pedestrian tram rail_urban rail rail_electric rail_fast ship" speed="25.14" length="35.33" width="3.50" shape="62.50,665.11 63.11,663.29 63.77,660.41 64.17,657.47 64.40,653.46 64.33,648.39 63.95,643.32 63.21,637.22 62.04,630.14"/>
    </edge>
    <edge id=":58_5" function="internal">
        <lane id=":58_5_0" index="0" disallow="pedestrian tram rail_urban rail rail_electric rail_fast ship" speed="26.28" length="31.19" width="3.50" shape="62.53,665.04 62.96,664.25 63.64,663.35 64.53,662.36 65.62,661.30 66.86,660.16 68.25,658.98 69.74,657.76 71.32,656.52 72.96,655.26 74.62,654.02 76.29,652.79 77.94,651.60 79.53,650.46 81.05,649.37 82.47,648.37 83.75,647.45 84.88,646.64 85.83,645.95 86.56,645.39"/>
    </edge>
    <edge id=":60_0" function="internal">
        <lane id=":60_0_0" index="0" disallow="pedestrian tram rail_urban rail rail_electric rail_fast ship" speed="36.11" length="47.32" width="3.50" shape="125.19,810.18 124.74,805.10 123.09,790.85 121.73,778.58 121.16,770.32 121.01,763.07"/>
    </edge>
    <edge id=":60_1" function="internal">
        <lane id=":60_1_0" index="0" disallow="pedestrian tram rail_urban rail rail_electric rail_fast ship" speed="36.11" length="46.99" width="3.50" shape="124.50,763.11 124.66,770.23 125.22,778.39 126.57,790.58 128.23,804.80 128.68,809.89"/>
    </edge>
    <edge id=":60_2" function="internal">
        <lane id=":60_2_0" index="0" disallow="pedestrian tram rail_urban rail rail_electric rail_fast ship" speed="22.13" length="45.72" width="3.50" shape="124.50,763.11 124.28,766.44 123.69,769.75 122.77,772.95 121.60,776.06 119.72,780.00 117.54,783.78 114.51,788.26 111.21,792.52 106.99,797.38 102.56,802.01"/>
    </edge>
    <edge id=":60_3" function="internal">
        <lane id=":60_3_0" index="0" disallow="pedestrian tram rail_urban rail rail_electric rail_fast ship" speed="21.44" length="43.03" width="3.50" shape="100.07,799.54 104.33,795.11 108.37,790.47 111.52,786.43 114.41,782.20 116.48,778.66 118.27,774.97 119.38,772.10 120.24,769.15 120.80,766.12 121.01,763.07"/>
    </edge>

    <edge id="20786" from="55" to="53" priority="3" type="highway.residential" spreadType="center" length="21.52" shape="52.63,683.71 28.77,663.12">
        <lane id="20786_0" index="0" disallow="pedestrian tram rail_urban rail rail_electric rail_fast ship" speed="36.11" length="21.52" width="3.50" customShape="1" shape="36.46,680.19 36.00,679.99 35.54,679.79 32.97,678.44 31.77,677.63 30.66,676.71 29.66,675.66 28.80,674.49 28.13,673.21 27.67,671.84 27.42,670.41 27.38,668.97 27.51,667.53 27.78,666.10 28.18,664.71 28.68,663.35 28.72,663.23 28.77,663.12"/>
    </edge>
    <edge id="20787" from="49" to="48" priority="3" type="highway.residential" spreadType="center" length="2.10">
        <lane id="20787_0" index="0" disallow="pedestrian tram rail_urban rail rail_electric rail_fast ship" speed="36.11" length="2.10" width="3.50" customShape="1" shape="33.89,659.79 33.10,661.74"/>
    </edge>
    <edge id="20790" from="48" to="55" priority="3" type="highway.residential" spreadType="center" length="12.73" shape="31.93,664.63 54.80,680.97">
        <lane id="20790_0" index="0" disallow="pedestrian tram rail_urban rail rail_electric rail_fast ship" speed="36.11" length="12.73" width="3.50" customShape="1" shape="31.07,667.62 31.02,667.85 30.93,668.90 30.96,669.92 31.13,670.90 31.44,671.83 31.90,672.69 32.50,673.50 33.22,674.25 34.04,674.93 34.93,675.53 37.01,676.61 37.41,676.79 37.87,676.99"/>
    </edge>
    <edge id="20903" from="56" to="21" priority="3" type="highway.residential" spreadType="center" length="5.53" shape="52.59,738.73 37.69,726.61">
        <lane id="20903_0" index="0" disallow="pedestrian tram rail_urban rail rail_electric rail_fast ship" speed="36.11" length="5.53" width="3.50" customShape="1" shape="42.41,729.49 40.05,728.06 37.69,726.61"/>
    </edge>
    <edge id="20904" from="29" to="56" priority="3" type="highway.residential" spreadType="center" length="5.54" shape="39.51,723.63 54.79,736.03">
        <lane id="20904_0" index="0" disallow="pedestrian tram rail_urban rail rail_electric rail_fast ship" speed="36.11" length="5.54" width="3.50" customShape="1" shape="39.51,723.63 41.88,725.07 44.24,726.51"/>
    </edge>
    <edge id="20959" from="56" to="23" priority="3" type="highway.residential" spreadType="center" length="16.59" shape="55.26,737.72 44.89,770.68">
        <lane id="20959_0" index="0" disallow="pedestrian tram rail_urban rail rail_electric rail_fast ship" speed="36.11" length="16.59" width="3.50" customShape="1" shape="52.87,756.13 48.88,763.40 44.89,770.68"/>
    </edge>
    <edge id="20960" from="35" to="56" priority="3" type="highway.residential" spreadType="center" length="16.60" shape="41.82,769.00 51.93,736.67">
        <lane id="20960_0" index="0" disallow="pedestrian tram rail_urban rail rail_electric rail_fast ship" speed="36.11" length="16.60" width="3.50" customShape="1" shape="41.82,769.00 45.81,761.72 49.80,754.44"/>
    </edge>
    <edge id="20962" from="57" to="56" priority="3" type="highway.residential" spreadType="center" length="0.29" shape="73.70,721.08 54.75,738.57">
        <lane id="20962_0" index="0" disallow="pedestrian tram rail_urban rail rail_electric rail_fast ship" speed="36.11" length="0.29" width="3.50" customShape="1" shape="67.72,729.11 67.66,729.23 67.59,729.37"/>
    </edge>
    <edge id="20963" from="56" to="57" priority="3" type="highway.residential" spreadType="center" length="0.25" shape="52.38,735.99 71.34,718.52">
        <lane id="20963_0" index="0" disallow="pedestrian tram rail_urban rail rail_electric rail_fast ship" speed="36.11" length="0.25" width="3.50" customShape="1" shape="64.50,727.71 64.56,727.61 64.62,727.49"/>
    </edge>
    <edge id="21140" from="60" to="44" priority="3" type="highway.residential" spreadType="center" length="70.00" shape="118.69,790.86 139.93,878.47">
        <lane id="21140_0" index="0" disallow="pedestrian tram rail_urban rail rail_electric rail_fast ship" speed="36.11" length="70.00" width="3.50" customShape="1" shape="128.68,809.89 130.07,826.73 131.49,840.58 132.98,851.91 134.66,862.22 136.25,870.52 136.83,872.93 137.55,874.78 138.54,876.51 139.93,878.47"/>
    </edge>
    <edge id="21141" from="47" to="60" priority="3" type="highway.residential" spreadType="center" length="70.00" shape="135.99,878.97 115.29,791.67">
        <lane id="21141_0" index="0" disallow="pedestrian tram rail_urban rail rail_electric rail_fast ship" speed="36.11" length="70.00" width="3.50" customShape="1" shape="135.99,878.97 135.84,878.78 134.71,876.89 133.79,874.81 133.03,872.17 131.37,863.65 129.62,853.10 128.08,841.50 126.62,827.35 125.19,810.18"/>
    </edge>
    <edge id="21143" from="54" to="60" priority="3" type="highway.residential" spreadType="center" length="1.27" shape="121.87,740.58 118.74,791.47">
        <lane id="21143_0" index="0" disallow="pedestrian tram rail_urban rail rail_electric rail_fast ship" speed="36.11" length="1.27" width="3.50" customShape="1" shape="124.52,761.84 124.51,762.46 124.50,763.11"/>
    </edge>
    <edge id="21144" from="60" to="54" priority="3" type="highway.residential" spreadType="center" length="1.30" shape="115.25,791.25 118.38,740.37">
        <lane id="21144_0" index="0" disallow="pedestrian tram rail_urban rail rail_electric rail_fast ship" speed="36.11" length="1.30" width="3.50" customShape="1" shape="121.01,763.07 121.01,762.41 121.02,761.77"/>
    </edge>
    <edge id="21146" from="36" to="54" priority="3" type="highway.residential" spreadType="center" length="70.06" shape="166.77,664.02 121.62,741.38">
        <lane id="21146_0" index="0" disallow="pedestrian tram rail_urban rail rail_electric rail_fast ship" speed="36.11" length="70.06" width="3.50" customShape="1" shape="166.77,664.02 154.30,684.78 146.98,697.40 141.49,707.58 137.04,716.60 133.12,725.40"/>
    </edge>
    <edge id="21147" from="54" to="25" priority="3" type="highway.residential" spreadType="center" length="70.01" shape="118.60,739.62 163.52,662.64">
        <lane id="21147_0" index="0" disallow="pedestrian tram rail_urban rail rail_electric rail_fast ship" speed="36.11" length="70.01" width="3.50" customShape="1" shape="129.92,723.98 133.84,715.18 138.31,706.10 143.82,695.87 151.16,683.22 163.52,662.64"/>
    </edge>
    <edge id="21167" from="58" to="34" priority="3" type="highway.residential" spreadType="center" length="32.12" shape="66.58,647.90 68.38,600.59">
        <lane id="21167_0" index="0" disallow="pedestrian tram rail_urban rail rail_electric rail_fast ship" speed="36.11" length="32.12" width="3.50" customShape="1" shape="62.04,630.14 61.85,629.05 61.06,623.67 60.77,619.32 60.87,615.51 61.27,612.27 61.98,609.09 62.85,606.51 63.38,605.56 64.38,604.27 66.38,602.42 68.38,600.59"/>
    </edge>
    <edge id="21168" from="45" to="58" priority="3" type="highway.residential" spreadType="center" length="28.75" shape="70.85,603.06 70.08,648.00">
        <lane id="21168_0" index="0" disallow="pedestrian tram rail_urban rail rail_electric rail_fast ship" speed="36.11" length="28.75" width="3.50" customShape="1" shape="70.85,603.06 68.94,604.84 67.11,606.47 66.34,607.40 65.99,608.05 65.28,610.29 64.67,613.14 64.34,616.06 64.28,619.51 64.56,623.49 65.30,628.51 65.49,629.52"/>
    </edge>
    <edge id="21638" from="60" to="41" priority="3" type="highway.residential" spreadType="center" length="70.01" shape="117.97,792.76 45.21,839.20">
        <lane id="21638_0" index="0" disallow="pedestrian tram rail_urban rail rail_electric rail_fast ship" speed="36.11" length="70.01" width="3.50" customShape="1" shape="102.56,802.01 95.59,808.85 86.98,816.90 80.41,822.63 74.36,827.39 66.04,833.38 63.81,834.65 60.97,835.82 57.06,837.04 52.55,838.05 45.21,839.20"/>
    </edge>
    <edge id="21639" from="46" to="60" priority="3" type="highway.residential" spreadType="center" length="70.04" shape="42.49,836.10 116.10,789.80">
        <lane id="21639_0" index="0" disallow="pedestrian tram rail_urban rail rail_electric rail_fast ship" speed="36.11" length="70.04" width="3.50" customShape="1" shape="42.49,836.10 43.21,835.97 51.68,834.65 56.00,833.70 59.72,832.56 62.34,831.48 64.36,830.30 72.45,824.44 78.35,819.79 84.77,814.18 93.24,806.26 100.10,799.51"/>
    </edge>
    <edge id="21733" from="37" to="58" priority="3" type="highway.residential" spreadType="center" length="4.26" shape="94.12,647.43 68.36,649.65">
        <lane id="21733_0" index="0" disallow="pedestrian tram rail_urban rail rail_electric rail_fast ship" speed="36.11" length="4.26" width="3.50" customShape="1" shape="94.12,647.43 89.89,647.92"/>
    </edge>
    <edge id="21735" from="55" to="58" priority="3" type="highway.residential" spreadType="center" length="3.23" shape="52.09,681.64 66.76,647.14">
        <lane id="21735_0" index="0" disallow="pedestrian tram rail_urban rail rail_electric rail_fast ship" speed="36.11" length="3.23" width="3.50" customShape="1" shape="61.30,668.03 61.90,666.57 62.53,665.04"/>
    </edge>
    <edge id="21736" from="58" to="55" priority="3" type="highway.residential" spreadType="center" length="3.31" shape="69.97,648.51 55.31,683.01">
        <lane id="21736_0" index="0" disallow="pedestrian tram rail_urban rail rail_electric rail_fast ship" speed="36.11" length="3.31" width="3.50" customShape="1" shape="65.76,666.37 65.13,667.90 64.50,669.43"/>
    </edge>
    <edge id="21738" from="57" to="55" priority="3" type="highway.residential" spreadType="center" length="6.77" shape="70.90,720.73 52.13,683.11">
        <lane id="21738_0" index="0" disallow="pedestrian tram rail_urban rail rail_electric rail_fast ship" speed="36.11" length="6.77" width="3.50" customShape="1" shape="62.37,706.53 60.90,703.47 59.45,700.42"/>
    </edge>
    <edge id="21739" from="55" to="57" priority="3" type="highway.residential" spreadType="center" length="6.76" shape="55.26,681.55 74.03,719.17">
        <lane id="21739_0" index="0" disallow="pedestrian tram rail_urban rail rail_electric rail_fast ship" speed="36.11" length="6.76" width="3.50" customShape="1" shape="62.61,698.92 64.06,701.96 65.53,705.02"/>
    </edge>
    <edge id="21741" from="54" to="57" priority="3" type="highway.residential" spreadType="center" length="21.07" shape="119.43,742.08 71.69,721.46">
        <lane id="21741_0" index="0" disallow="pedestrian tram rail_urban rail rail_electric rail_fast ship" speed="36.11" length="21.07" width="3.50" customShape="1" shape="105.26,736.51 95.70,731.59 86.40,727.13"/>
    </edge>
    <edge id="21742" from="57" to="54" priority="3" type="highway.residential" spreadType="center" length="21.19" shape="73.07,718.25 120.82,738.87">