<routes>
	<vehicle depart="0.1" departLane="0" departPos="14.086360592221656" departSpeed="0.10833562" id="327" type="bicycle">
		<route edges=":54_1 21741"/>
	</vehicle>
	<vehicle depart="0.1" departLane="0" departPos="62.31674784280951" departSpeed="1.5430357" id="341" type="bus">
		<route edges="21146 21143"/>
	</vehicle>
	<vehicle depart="0.1" departLane="0" departPos="26.053709839077875" departSpeed="2.0339225" id="38" type="passenger">
		<route edges=":54_3 21143"/>
	</vehicle>
	<vehicle depart="0.1" departLane="0" departPos="23.1384684768753" departSpeed="0.54154385" id="326" type="passenger">
		<route edges=":54_1 21741"/>
	</vehicle>
	<vehicle depart="0.1" departLane="0" departPos="72.49928874289755" departSpeed="1.5453609" id="338" type="passenger">
		<route edges="21146 21741"/>
	</vehicle>
	<vehicle depart="0.1" departLane="0" departPos="42.65077605977125" departSpeed="0.72283137" id="345" type="passenger">
		<route edges="21146 21143"/>
	</vehicle>
	<vehicle depart="0.1" departLane="0" departPos="2.5" departSpeed="14.120963" id="348" type="passenger">
		<route edges="21741 21738 20786"/>
	</vehicle>
	<vehicle depart="0.1" departLane="0" departPos="23.98956757522196" departSpeed="2.0090214" id="349" type="passenger">
		<route edges="21146 21143"/>
	</vehicle>
	<vehicle depart="0.1" departLane="0" departPos="1.25" departSpeed="1.2931344" id="316" type="motorcycle">
		<route edges=":54_3 21143"/>
	</vehicle>
</routes>
