<!-- generated on 2020-12-18 15:45:34.310037 by ipykernel_launcher.py v1_2_0+5214-53edc58fcd
-->
<tlLogics/>
