<routes>
	<vehicle depart="0.1" departLane="1" departPos="132.8772475263702" departSpeed="4.0006402" id="1" type="passenger">
		<route edges="26 28 24"/>
	</vehicle>
	<vehicle depart="0.1" departLane="0" departPos="0" departSpeed="11.082769" id="2" type="passenger">
		<route edges="26 27 24"/>
	</vehicle>
	<vehicle depart="0.1" departLane="0" departPos="0" departSpeed="11.085309" id="3" type="passenger">
		<route edges="26 27 24"/>
	</vehicle>
</routes>
