<routes>
	<vehicle depart="0.1" departLane="0" departPos="12.668903039265334" departSpeed="9.1193871" id="36" type="passenger">
		<route edges=":48_5 8770 8773"/>
	</vehicle>
	<vehicle depart="0.1" departLane="0" departPos="63.309983652806245" departSpeed="4.97542" id="315" type="passenger">
		<route edges="8723 8770"/>
	</vehicle>
	<vehicle depart="0.1" departLane="0" departPos="8.801814148124645" departSpeed="0.022167578" id="317" type="passenger">
		<route edges=":50_0 8998"/>
	</vehicle>
	<vehicle depart="0.1" departLane="0" departPos="53.10964641673238" departSpeed="2.2298783" id="318" type="passenger">
		<route edges="8723 8717"/>
	</vehicle>
	<vehicle depart="0.1" departLane="0" departPos="40.67558592993169" departSpeed="2.3138424" id="321" type="passenger">
		<route edges="8723 8717"/>
	</vehicle>
	<vehicle depart="0.1" departLane="0" departPos="36.620015115351585" departSpeed="1.4243971" id="330" type="passenger">
		<route edges=":50_0 8998 8715 9773 8826"/>
	</vehicle>
	<vehicle depart="0.1" departLane="0" departPos="2.5" departSpeed="2.9381548" id="355" type="passenger">
		<route edges=":50_1 8992"/>
	</vehicle>
	<vehicle depart="0.1" departLane="1" departPos="61.187370745055034" departSpeed="3.3992807" id="359" type="passenger">
		<route edges="8777 8992"/>
	</vehicle>
	<vehicle depart="0.1" departLane="0" departPos="28.68223086936867" departSpeed="0.82427004" id="33" type="motorcycle">
		<route edges=":50_0 8998"/>
	</vehicle>
	<vehicle depart="0.1" departLane="0" departPos="18.659553788653007" departSpeed="0.39422253" id="328" type="truck">
		<route edges=":49_0 8718"/>
	</vehicle>
</routes>
