<routes>
	<vehicle depart="0.1" departLane="0" departPos="71.74119424119823" departSpeed="4.7542186" id="1" type="passenger">
		<route edges="50201 50213 50197"/>
	</vehicle>
	<vehicle depart="0.1" departLane="0" departPos="93.46973087517726" departSpeed="2.2541709" id="2" type="passenger">
		<route edges="50195 50211 50199"/>
	</vehicle>
	<vehicle depart="0.1" departLane="0" departPos="135.6551506541688" departSpeed="2.1830761" id="4" type="passenger">
		<route edges="50205 50207 50197"/>
	</vehicle>
	<vehicle depart="0.1" departLane="0" departPos="143.65520095744785" departSpeed="4.8400744" id="5" type="passenger">
		<route edges="50205 50217 50199"/>
	</vehicle>
	<vehicle depart="0.1" departLane="0" departPos="44.061010032195206" departSpeed="1.9208092" id="7" type="passenger">
		<route edges="50201 50213 50197"/>
	</vehicle>
</routes>
