<routes>
	<vehicle depart="0.1" departLane="0" departPos="59.89001793183179" departSpeed="17.5035" id="38" type="passenger">
		<route edges="67 61"/>
	</vehicle>
	<vehicle depart="0.1" departLane="0" departPos="60.13317711943918" departSpeed="24.3385" id="312" type="passenger">
		<route edges="61"/>
	</vehicle>
	<vehicle depart="0.1" departLane="0" departPos="0" departSpeed="20.1648" id="314" type="passenger">
		<route edges="61"/>
	</vehicle>
	<vehicle depart="0.1" departLane="0" departPos="132.88682998455425" departSpeed="22.7314" id="316" type="passenger">
		<route edges="59 62 56 67 61"/>
	</vehicle>
	<vehicle depart="0.1" departLane="1" departPos="240.3074645043466" departSpeed="23.1423" id="318" type="passenger">
		<route edges="58 66 68 61"/>
	</vehicle>
	<vehicle depart="0.1" departLane="0" departPos="0" departSpeed="24.7924" id="319" type="passenger">
		<route edges="59 62 56 67 61"/>
	</vehicle>
	<vehicle depart="0.1" departLane="1" departPos="201.45687915630253" departSpeed="23.2706" id="321" type="passenger">
		<route edges="58 66 68 61"/>
	</vehicle>
	<vehicle depart="0.1" departLane="0" departPos="211.81175923493097" departSpeed="21.8789" id="322" type="passenger">
		<route edges="58 66 68 61"/>
	</vehicle>
	<vehicle depart="0.1" departLane="0" departPos="0" departSpeed="22.3212" id="323" type="passenger">
		<route edges="59 62 56 67 61"/>
	</vehicle>
	<vehicle depart="0.1" departLane="0" departPos="0" departSpeed="18.87" id="325" type="passenger">
		<route edges="59 62 56 67 61"/>
	</vehicle>
	<vehicle depart="0.1" departLane="0" departPos="174.98900027702794" departSpeed="22.6996" id="326" type="passenger">
		<route edges="58 66 68 61"/>
	</vehicle>
	<vehicle depart="0.1" departLane="0" departPos="149.05521931157026" departSpeed="21.8571" id="327" type="passenger">
		<route edges="58 58 66 68 61"/>
	</vehicle>
	<vehicle depart="0.1" departLane="1" departPos="89.25605009052589" departSpeed="18.8097" id="328" type="passenger">
		<route edges="58 66 68 61 61"/>
	</vehicle>
	<vehicle depart="0.1" departLane="0" departPos="0" departSpeed="16.0391" id="329" type="passenger">
		<route edges="65 59 62 56 67 61"/>
	</vehicle>
	<vehicle depart="0.1" departLane="0" departPos="0" departSpeed="13.1777" id="330" type="passenger">
		<route edges="53 65 59 62 56 67 61"/>
	</vehicle>
	<vehicle depart="0.1" departLane="0" departPos="0" departSpeed="10.0878" id="331" type="passenger">
		<route edges="53 65 59 62 56 67 61"/>
	</vehicle>
	<vehicle depart="0.1" departLane="0" departPos="0" departSpeed="6.9818" id="332" type="passenger">
		<route edges="53 65 59 62 56 67 61"/>
	</vehicle>
</routes>
