<!-- generated on 2020-12-18 16:14:51.278409 by ipykernel_launcher.py v1_2_0+5214-53edc58fcd
-->
<edges>
	<edge from="1" function="normal" id="53" length="68.69710141592583" numLanes="1" priority="1" speed="36.11111111111111" spreadType="center" to="2">
		<lane allow="moped bicycle pedestrian custom1 trailer evehicle rail_urban ship private truck vip custom2 authority delivery rail_electric taxi tram army hov coach motorcycle passenger bus rail emergency" index="0" length="68.69710141592583" shape="158.7366,467.5413 135.04045,442.67535 111.34425,417.80944999999997" speed="36.11111111111111" width="3.4998754292117202"/>
	</edge>
	<edge from="3" function="normal" id="55" length="0.21368360226738203" numLanes="2" priority="1" speed="36.11111111111111" spreadType="center" to="4">
		<lane allow="moped bicycle pedestrian custom1 trailer evehicle rail_urban ship private vip custom2 authority delivery rail_electric taxi tram army hov coach motorcycle passenger rail emergency" index="0" length="0.21368360226738203" shape="-42.47795000000001,267.00329999999997 -42.55,266.9682 -42.66925,266.9081" speed="36.11111111111111" width="3.499910055987173"/>
		<lane allow="moped bicycle pedestrian custom1 trailer evehicle rail_urban ship private truck vip custom2 authority delivery rail_electric taxi tram army hov coach motorcycle passenger bus rail emergency" index="1" length="0.21368360226738203" shape="-40.86695,263.8969 -40.97515,263.84254999999996 -41.087599999999995,263.7859" speed="36.11111111111111" width="3.4990317703616216"/>
	</edge>
	<edge from="5" function="normal" id="56" length="10.278143690568164" numLanes="1" priority="1" speed="36.11111111111111" spreadType="center" to="6">
		<lane allow="moped bicycle pedestrian custom1 trailer evehicle rail_urban ship private truck vip custom2 authority delivery rail_electric taxi tram army hov coach motorcycle passenger bus rail emergency" index="0" length="10.278143690568164" shape="-35.1048,286.4404 -39.0398,283.135 -42.9748,279.82955" speed="36.11111111111111" width="3.499930760743694"/>
	</edge>
	<edge from="7" function="normal" id="58" length="240.3074645043466" numLanes="2" priority="1" speed="36.11111111111111" spreadType="center" to="8">
		<lane allow="moped bicycle pedestrian custom1 trailer evehicle rail_urban ship private truck vip custom2 authority delivery rail_electric taxi tram army hov coach motorcycle passenger bus rail emergency" index="0" length="240.3074645043466" shape="169.47865000000002,416.34995 156.6984,411.7957 142.89225,406.91565 134.8736,403.73595 127.46955,400.39545 120.2207,396.71410000000003 113.60140000000001,392.9227 107.18844999999999,388.8044 99.7525,383.52305 92.15335,377.63405 82.86795,369.88464999999997 63.0899,352.7887 49.02435,340.58325 17.1622,312.16555 4.2198,301.06944999999996 -6.6425,292.21135000000004 -16.6137,284.6207 -25.5321,278.10965" speed="36.11111111111111" width="3.499964128387596"/>
		<lane allow="moped bicycle pedestrian custom1 trailer evehicle rail_urban ship private truck vip custom2 authority delivery rail_electric taxi tram army hov coach motorcycle passenger bus rail emergency" index="1" length="240.3074645043466" shape="170.68175,413.06335 157.92235,408.51554999999996 144.20395000000002,403.6698 136.27495,400.529 128.95850000000002,397.22835 121.8031,393.59159999999997 115.27685,389.84595 108.9505,385.77155000000005 101.59565,380.53265 94.0693,374.68365 84.8333,366.95905 65.09505,349.9001 51.07955,337.72855000000004 19.2531,309.34434999999996 6.2995,298.24625 -4.5903,289.3727 -14.57155,281.77785 -23.48505,275.2708" speed="36.11111111111111" width="3.499833534612727"/>
	</edge>
	<edge from="9" function="normal" id="59" length="149.18408061380268" numLanes="1" priority="1" speed="36.11111111111111" spreadType="center" to="10">
		<lane allow="moped bicycle pedestrian custom1 trailer evehicle rail_urban ship private truck vip custom2 authority delivery rail_electric taxi tram army hov coach motorcycle passenger bus rail emergency" index="0" length="149.18408061380268" shape="94.25925000000001,401.26995 38.572900000000004,351.64125 -17.11345,302.01265" speed="36.11111111111111" width="3.499872903406666"/>
	</edge>
	<edge from="11" function="normal" id="61" length="86.46974299101275" numLanes="2" priority="1" speed="36.11111111111111" spreadType="center" to="12">
		<lane allow="moped bicycle pedestrian custom1 trailer evehicle rail_urban ship private truck vip custom2 authority delivery rail_electric taxi tram army hov coach motorcycle passenger bus rail emergency" index="0" length="86.46974299101275" shape="-99.00565,234.2885 -106.4739,227.34699999999998 -111.82034999999999,221.901 -118.21355,214.70665000000002 -124.00665000000001,207.6563 -129.80945,199.97719999999998 -135.6046,191.6519 -139.65555,185.19310000000002 -144.86545,175.9872 -151.20995,164.55085" speed="36.11111111111111" width="3.4999629026605543"/>
		<lane allow="moped bicycle pedestrian custom1 trailer evehicle rail_urban ship private truck vip custom2 authority delivery rail_electric taxi tram army hov coach motorcycle passenger bus rail emergency" index="1" length="86.46974299101275" shape="-96.68315,231.67135000000002 -104.0055,224.86599999999999 -109.25845,219.51695 -115.56615,212.41765 -121.27715,205.46585 -127.0013,197.88825 -132.71134999999998,189.683 -136.6919,183.32995 -141.85775,174.19265000000001 -148.16305,162.82875" speed="36.11111111111111" width="3.498138147643688"/>
	</edge>
	<edge from="10" function="normal" id="62" length="23.79510329836295" numLanes="1" priority="1" speed="36.11111111111111" spreadType="center" to="5">
		<lane allow="moped bicycle pedestrian custom1 trailer evehicle rail_urban ship private truck vip custom2 authority delivery rail_electric taxi tram army hov coach motorcycle passenger bus rail emergency" index="0" length="23.79510329836295" shape="-17.11345,302.01265 -30.46785,290.36585 -35.1048,286.4404" speed="36.11111111111111" width="3.499872903406666"/>
	</edge>
	<edge from="4" function="normal" id="68" length="64.31053182614994" numLanes="2" priority="1" speed="36.11111111111111" spreadType="center" to="11">
		<lane allow="moped bicycle pedestrian custom1 trailer evehicle rail_urban ship private truck vip custom2 authority delivery rail_electric taxi tram army hov coach motorcycle passenger bus rail emergency" index="0" length="64.31053182614994" shape="-42.66925,266.9081 -60.9939,257.47395 -74.59525,250.09575 -84.4389,244.39069999999998 -91.46674999999999,239.95139999999998 -95.77029999999999,236.9212 -99.00565,234.2885" speed="36.11111111111111" width="3.4999511610878087"/>
		<lane allow="moped bicycle pedestrian custom1 trailer evehicle rail_urban ship private truck vip custom2 authority delivery rail_electric taxi tram army hov coach motorcycle passenger bus rail emergency" index="1" length="64.31053182614994" shape="-41.087599999999995,263.7859 -59.24095,254.44324999999998 -72.70425,247.14805 -82.42445000000001,241.5257 -89.33449999999999,237.1737 -93.5136,234.24394999999998 -96.68315,231.67135000000002" speed="36.11111111111111" width="3.498138147643688"/>
	</edge>
	<edge from="8" function="normal" id="66" length="20.275936756823235" numLanes="2" priority="1" speed="36.11111111111111" spreadType="center" to="3">
		<lane allow="moped bicycle pedestrian custom1 trailer evehicle rail_urban ship private truck vip custom2 authority delivery rail_electric taxi tram army hov coach motorcycle passenger bus rail emergency" index="0" length="20.275936756823235" shape="-25.5321,278.10965 -33.406400000000005,272.56705 -38.75195,269.10595 -42.47795000000001,267.00329999999997" speed="36.11111111111111" width="3.500070172153689"/>
		<lane allow="moped bicycle pedestrian custom1 trailer evehicle rail_urban ship private truck vip custom2 authority delivery rail_electric taxi tram army hov coach motorcycle passenger bus rail emergency" index="1" length="20.275936756823235" shape="-23.48505,275.2708 -31.538700000000002,269.60609999999997 -37.0518,266.04560000000004 -40.86695,263.8969" speed="36.11111111111111" width="3.4990317703616216"/>
	</edge>
	<edge from="2" function="normal" id="65" length="23.784653485983167" numLanes="1" priority="1" speed="36.11111111111111" spreadType="center" to="9">
		<lane allow="moped bicycle pedestrian custom1 trailer evehicle rail_urban ship private truck vip custom2 authority delivery rail_electric taxi tram army hov coach motorcycle passenger bus rail emergency" index="0" length="23.784653485983167" shape="111.34425,417.80944999999997 103.87725,410.2477 96.14070000000001,402.96195 94.25925000000001,401.26995" speed="36.11111111111111" width="3.4998754292117202"/>
	</edge>
	<edge from="6" function="normal" id="67" length="72.21629261943217" numLanes="1" priority="1" speed="36.11111111111111" spreadType="center" to="11">
		<lane allow="moped bicycle pedestrian custom1 trailer evehicle rail_urban ship private truck vip custom2 authority delivery rail_electric taxi tram army hov coach motorcycle passenger bus rail emergency" index="0" length="72.21629261943217" shape="-42.9748,279.82955 -54.32525,270.56444999999997 -81.321,249.31365 -91.43785,240.93495000000001 -99.00565,234.2885" speed="36.11111111111111" width="3.499904285834099"/>
	</edge>
</edges>
