<!-- generated on 2020-12-18 16:05:40.318491 by ipykernel_launcher.py v1_2_0+5214-53edc58fcd
-->
<connections>
	<connection contPos="-4.0" from="468" fromLane="0" keepClear="true" to="487" toLane="0"/>
	<connection contPos="-4.0" from="468" fromLane="0" keepClear="true" to="482" toLane="0"/>
	<connection contPos="-4.0" from="470" fromLane="0" keepClear="true" to="478" toLane="0"/>
	<connection contPos="-4.0" from="470" fromLane="1" keepClear="true" to="480" toLane="0"/>
	<connection contPos="-4.0" from="475" fromLane="1" keepClear="true" to="485" toLane="1"/>
	<connection contPos="-4.0" from="475" fromLane="1" keepClear="true" to="483" toLane="0"/>
	<connection contPos="-4.0" from="475" fromLane="0" keepClear="true" to="485" toLane="0"/>
	<connection contPos="-4.0" from="475" fromLane="0" keepClear="true" to="486" toLane="0"/>
	<connection contPos="-4.0" from="477" fromLane="0" keepClear="true" to="479" toLane="0"/>
	<connection contPos="-4.0" from="477" fromLane="0" keepClear="true" to="481" toLane="0"/>
	<connection contPos="-4.0" from="478" fromLane="0" keepClear="true" to="469" toLane="0"/>
	<connection contPos="-4.0" from="479" fromLane="0" keepClear="true" to="469" toLane="0"/>
	<connection contPos="-4.0" from="480" fromLane="0" keepClear="true" to="476" toLane="0"/>
	<connection contPos="-4.0" from="481" fromLane="0" keepClear="true" to="473" toLane="0"/>
	<connection contPos="-4.0" from="482" fromLane="0" keepClear="true" to="476" toLane="0"/>
	<connection contPos="-4.0" from="483" fromLane="0" keepClear="true" to="469" toLane="0"/>
	<connection contPos="-4.0" from="485" fromLane="1" keepClear="true" to="473" toLane="1"/>
	<connection contPos="-4.0" from="485" fromLane="0" keepClear="true" to="473" toLane="0"/>
	<connection contPos="-4.0" from="486" fromLane="0" keepClear="true" to="476" toLane="0"/>
	<connection contPos="-4.0" from="487" fromLane="0" keepClear="true" to="473" toLane="1"/>
</connections>
