<!-- generated on 2020-12-18 16:05:40.169865 by ipykernel_launcher.py v1_2_0+5214-53edc58fcd
-->
<edges>
	<edge from="1" function="normal" id="468" length="262.1198295603266" numLanes="1" priority="1" speed="36.11111111111111" spreadType="center" to="2">
		<lane allow="moped bicycle pedestrian custom1 trailer evehicle rail_urban ship private truck vip custom2 authority delivery rail_electric taxi tram army hov coach motorcycle passenger bus rail emergency" index="0" length="262.1198295603266" shape="-216.175,171.5947 -101.7481,107.7056 12.688500000000001,43.81245" speed="36.11111111111111" width="2.49966767591214"/>
	</edge>
	<edge from="3" function="normal" id="469" length="262.0931526684129" numLanes="1" priority="1" speed="36.11111111111111" spreadType="center" to="4">
		<lane allow="moped bicycle pedestrian custom1 trailer evehicle rail_urban ship private truck vip custom2 authority delivery rail_electric taxi tram army hov coach motorcycle passenger bus rail emergency" index="0" length="262.0931526684129" shape="13.882950000000001,46.00645 -100.52935,109.88845 -214.95625,173.7775" speed="36.11111111111111" width="2.4964716581607775"/>
	</edge>
	<edge from="5" function="normal" id="470" length="103.88970556765462" numLanes="2" priority="1" speed="36.11111111111111" spreadType="center" to="6">
		<lane allow="moped bicycle pedestrian custom1 trailer evehicle rail_urban ship private vip custom2 authority delivery rail_electric taxi tram army hov coach motorcycle passenger rail emergency" index="0" length="103.88970556765462" shape="79.088,137.17275 73.70605,125.77029999999999 69.6857,117.6313 65.50125,110.14850000000001 60.771249999999995,102.40025 55.72275,94.85575 50.9688,88.33590000000001 46.206450000000004,82.45840000000001 36.95155,71.7918 31.154049999999998,64.8065 26.916150000000002,59.1596 23.8149,54.560550000000006 21.8155,51.05755" speed="36.11111111111111" width="2.4999202487279493"/>
		<lane allow="moped bicycle pedestrian custom1 trailer evehicle rail_urban ship private vip custom2 authority delivery rail_electric taxi tram army hov coach motorcycle passenger rail emergency" index="1" length="103.88970556765462" shape="81.34190000000001,136.09134999999998 75.94855000000001,124.66485 71.8974,116.4668 67.6898,108.93905000000001 62.93384999999999,101.14235 57.86045,93.55085 53.073949999999996,86.97305 48.29089999999999,81.0527 39.05205,70.39955 33.2817,63.466750000000005 29.070700000000002,57.8754 26.01095,53.359300000000005 24.0163,49.87365" speed="36.11111111111111" width="2.499913496503426"/>
	</edge>
	<edge from="7" function="normal" id="473" length="104.06322690613854" numLanes="2" priority="1" speed="36.11111111111111" spreadType="center" to="8">
		<lane allow="moped bicycle pedestrian custom1 trailer evehicle rail_urban ship private vip custom2 authority delivery rail_electric taxi tram army hov coach motorcycle passenger rail emergency" index="0" length="104.06322690613854" shape="28.448999999999998,47.5602 30.40265,50.9507 33.5078,55.482699999999994 37.7584,61.06085 43.59675,68.0094 52.88205,78.74725000000001 57.64425,84.71995 62.3973,91.31685 67.4555,98.93445 72.1996,106.74715 76.40915000000001,114.30405 80.4453,122.47745 85.83605,133.89985000000001" speed="36.11111111111111" width="2.499747075205812"/>
		<lane allow="moped bicycle pedestrian custom1 trailer evehicle rail_urban ship private vip custom2 authority delivery rail_electric taxi tram army hov coach motorcycle passenger rail emergency" index="1" length="104.06322690613854" shape="26.23745,48.726 28.20675,52.1554 31.289,56.67915 35.51935,62.26405 41.323350000000005,69.2039 50.5865,79.89885000000001 55.359899999999996,85.8462 60.12925,92.4339 65.19489999999999,100.0384 69.9448,107.84309999999999 74.15335,115.38560000000001 78.1969,123.57115 83.58895000000001,134.9956" speed="36.11111111111111" width="2.5000472095542534"/>
	</edge>
	<edge from="9" function="normal" id="475" length="158.60387231619262" numLanes="2" priority="1" speed="36.11111111111111" spreadType="center" to="10">
		<lane allow="moped bicycle pedestrian custom1 trailer evehicle rail_urban ship private vip custom2 authority delivery rail_electric taxi tram army hov coach motorcycle passenger rail emergency" index="0" length="158.60387231619262" shape="-74.0174,-96.70949999999999 -62.0689,-79.963 -51.77105,-66.3324 -38.375550000000004,-48.73835 -26.79805,-33.555099999999996 -8.711549999999999,-10.024049999999999 0.8444,2.95345 8.615649999999999,14.12275 15.5104,24.690150000000003 17.85625,28.6482 19.4555,31.777099999999997" speed="36.11111111111111" width="2.4992089148368515"/>
		<lane allow="moped bicycle pedestrian custom1 trailer evehicle rail_urban ship private vip custom2 authority delivery rail_electric taxi tram army hov coach motorcycle passenger rail emergency" index="1" length="158.60387231619262" shape="-76.05255,-95.2576 -64.10025,-78.5056 -53.8144,-64.88855 -40.43515,-47.317949999999996 -28.87155,-32.149950000000004 -10.822949999999999,-8.671949999999999 -1.2958,4.2585999999999995 6.4481,15.3797 13.309149999999999,25.8855 15.61905,29.766599999999997 17.219250000000002,32.891999999999996" speed="36.11111111111111" width="2.498549004922659"/>
	</edge>
	<edge from="11" function="normal" id="476" length="124.16808832158752" numLanes="1" priority="1" speed="36.11111111111111" spreadType="center" to="12">
		<lane allow="moped bicycle pedestrian custom1 trailer evehicle rail_urban ship private vip custom2 authority delivery rail_electric taxi tram army hov coach motorcycle passenger rail emergency" index="0" length="124.16808832158752" shape="27.63295,34.0272 34.2586,28.641 43.3083,20.66135 56.8763,7.93705 73.31200000000001,-6.8675 120.59440000000001,-48.2629" speed="36.11111111111111" width="2.4999808979270184"/>
	</edge>
	<edge from="13" function="normal" id="477" length="124.30235954379023" numLanes="1" priority="1" speed="36.11111111111111" spreadType="center" to="14">
		<lane allow="moped bicycle pedestrian custom1 trailer evehicle rail_urban ship private vip custom2 authority delivery rail_electric taxi tram army hov coach motorcycle passenger rail emergency" index="0" length="124.30235954379023" shape="122.24365,-46.384100000000004 74.93955,-4.9694 58.5107,9.831050000000001 44.92855,22.566499999999998 35.83875,30.57855 29.177750000000003,35.9904" speed="36.11111111111111" width="2.496506905658381"/>
	</edge>
	<edge from="6" function="normal" id="478" length="10.590187014034026" numLanes="1" priority="1" speed="36.11111111111111" spreadType="center" to="3">
		<lane allow="moped bicycle pedestrian custom1 trailer evehicle rail_urban ship private vip custom2 authority delivery rail_electric taxi tram army hov coach motorcycle passenger rail emergency" index="0" length="10.590187014034026" shape="21.8155,51.05755 20.2913,48.5415 19.1702,47.1789 18.293950000000002,46.39445 17.28695,45.789699999999996 16.15615,45.481449999999995 14.9879,45.5648 13.882950000000001,46.00645" speed="36.11111111111111" width="2.4964716581607775"/>
	</edge>
	<edge from="14" function="normal" id="479" length="18.29822989638395" numLanes="1" priority="1" speed="36.11111111111111" spreadType="center" to="3">
		<lane allow="moped bicycle pedestrian custom1 trailer evehicle rail_urban ship private vip custom2 authority delivery rail_electric taxi tram army hov coach motorcycle passenger rail emergency" index="0" length="18.29822989638395" shape="29.177750000000003,35.9904 23.95445,39.79985 18.537950000000002,43.29365 13.882950000000001,46.00645" speed="36.11111111111111" width="2.4964716581607775"/>
	</edge>
	<edge from="6" function="normal" id="480" length="17.96108522668026" numLanes="1" priority="1" speed="36.11111111111111" spreadType="center" to="11">
		<lane allow="moped bicycle pedestrian custom1 trailer evehicle rail_urban ship private vip custom2 authority delivery rail_electric taxi tram army hov coach motorcycle passenger rail emergency" index="0" length="17.96108522668026" shape="24.0163,49.87365 23.1066,47.847350000000006 22.48225,45.6885 22.270899999999997,44.0161 22.32305,42.33155 22.6599,40.68045 23.27075,39.109700000000004 24.11985,37.6534 25.53745,35.909549999999996 27.1879,34.3826 27.63295,34.0272" speed="36.11111111111111" width="2.4999500675013504"/>
	</edge>
	<edge from="14" function="normal" id="481" length="12.72405180864662" numLanes="1" priority="1" speed="36.11111111111111" spreadType="center" to="7">
		<lane allow="moped bicycle pedestrian custom1 trailer evehicle rail_urban ship private vip custom2 authority delivery rail_electric taxi tram army hov coach motorcycle passenger rail emergency" index="0" length="12.72405180864662" shape="29.177750000000003,35.9904 27.925600000000003,37.217349999999996 27.29105,38.18425 26.8517,39.254000000000005 26.6197,40.38735 26.6199,42.1215 26.942700000000002,43.82695 27.7107,46.010549999999995 28.448999999999998,47.5602" speed="36.11111111111111" width="2.496506905658381"/>
	</edge>
	<edge from="2" function="normal" id="482" length="17.878100334931673" numLanes="1" priority="1" speed="36.11111111111111" spreadType="center" to="11">
		<lane allow="moped bicycle pedestrian custom1 trailer evehicle rail_urban ship private vip custom2 authority delivery rail_electric taxi tram army hov coach motorcycle passenger rail emergency" index="0" length="17.878100334931673" shape="12.688500000000001,43.81245 17.2267,41.16545 22.53365,37.7434 27.63295,34.0272" speed="36.11111111111111" width="2.49966767591214"/>
	</edge>
	<edge from="10" function="normal" id="483" length="15.296798335015549" numLanes="1" priority="1" speed="36.11111111111111" spreadType="center" to="3">
		<lane allow="moped bicycle pedestrian custom1 trailer evehicle rail_urban ship private vip custom2 authority delivery rail_electric taxi tram army hov coach motorcycle passenger rail emergency" index="0" length="15.296798335015549" shape="17.219250000000002,32.891999999999996 18.11505,35.0692 18.5709,36.7735 18.762050000000002,38.52625 18.604,40.281 18.03815,41.94845 17.08705,43.43075 15.84195,44.6785 14.4054,45.70205 13.882950000000001,46.00645" speed="36.11111111111111" width="2.4964716581607775"/>
	</edge>
	<edge from="10" function="normal" id="485" length="18.169808792841728" numLanes="2" priority="1" speed="36.11111111111111" spreadType="center" to="7">
		<lane allow="moped bicycle pedestrian custom1 trailer evehicle rail_urban ship private vip custom2 authority delivery rail_electric taxi tram army hov coach motorcycle passenger rail emergency" index="0" length="18.169808792841728" shape="19.4555,31.777099999999997 21.940849999999998,36.432050000000004 27.43085,45.680049999999994 28.448999999999998,47.5602" speed="36.11111111111111" width="2.4992089148368515"/>
		<lane allow="moped bicycle pedestrian custom1 trailer evehicle rail_urban ship private vip custom2 authority delivery rail_electric taxi tram army hov coach motorcycle passenger rail emergency" index="1" length="18.169808792841728" shape="17.219250000000002,32.891999999999996 19.7459,37.6252 25.2221,46.85115 26.23745,48.726" speed="36.11111111111111" width="2.498549004922659"/>
	</edge>
	<edge from="10" function="normal" id="486" length="10.286552842910542" numLanes="1" priority="1" speed="36.11111111111111" spreadType="center" to="11">
		<lane allow="moped bicycle pedestrian custom1 trailer evehicle rail_urban ship private vip custom2 authority delivery rail_electric taxi tram army hov coach motorcycle passenger rail emergency" index="0" length="10.286552842910542" shape="19.4555,31.777099999999997 20.4403,33.4651 21.2743,34.438 22.3066,35.1927 22.898899999999998,35.4366 23.52525,35.570499999999996 24.16555,35.58655 25.415300000000002,35.3142 26.56945,34.7571 27.63295,34.0272" speed="36.11111111111111" width="2.4992089148368515"/>
	</edge>
	<edge from="2" function="normal" id="487" length="16.60083088556315" numLanes="1" priority="1" speed="36.11111111111111" spreadType="center" to="7">
		<lane allow="moped bicycle pedestrian custom1 trailer evehicle rail_urban ship private vip custom2 authority delivery rail_electric taxi tram army hov coach motorcycle passenger rail emergency" index="0" length="16.60083088556315" shape="12.688500000000001,43.81245 14.837800000000001,42.8249 16.5604,42.370400000000004 18.33745,42.267300000000006 20.08615,42.5941 21.69925,43.3454 23.112650000000002,44.429050000000004 24.3213,45.73895 25.664749999999998,47.69945 26.23745,48.726" speed="36.11111111111111" width="2.49966767591214"/>
	</edge>
</edges>
