<routes>
	<vehicle depart="0.1" departLane="0" departPos="8.024435914382819" departSpeed="0.41692682" id="340" type="bicycle">
		<route edges="32085 31872"/>
	</vehicle>
	<vehicle depart="0.1" departLane="0" departPos="21.930725385235235" departSpeed="1.5527829" id="324" type="passenger">
		<route edges="32085 31872"/>
	</vehicle>
	<vehicle depart="0.1" departLane="0" departPos="2.5" departSpeed="3.0224685" id="326" type="passenger">
		<route edges=":64_1 32084"/>
	</vehicle>
	<vehicle depart="0.1" departLane="0" departPos="13.602518981503001" departSpeed="0.54359711" id="327" type="passenger">
		<route edges="32085 31872"/>
	</vehicle>
	<vehicle depart="0.1" departLane="0" departPos="2.5" departSpeed="0.7286496" id="358" type="passenger">
		<route edges="32085 31872"/>
	</vehicle>
	<vehicle depart="0.1" departLane="0" departPos="29.579757419550138" departSpeed="4.6509754" id="389" type="passenger">
		<route edges=":64_2 31872 31185"/>
	</vehicle>
	<vehicle depart="0.1" departLane="0" departPos="25.132661792363237" departSpeed="6.4495049" id="395" type="passenger">
		<route edges=":64_3 31872"/>
	</vehicle>
	<vehicle depart="0.1" departLane="0" departPos="9.352352380191506" departSpeed="6.4787413" id="399" type="passenger">
		<route edges=":64_3 31872"/>
	</vehicle>
	<vehicle depart="0.1" departLane="0" departPos="11.726290801434985" departSpeed="5.9720877" id="3101" type="passenger">
		<route edges="31869 31872"/>
	</vehicle>
	<vehicle depart="0.1" departLane="0" departPos="5.655782931290633" departSpeed="2.1033433" id="3103" type="passenger">
		<route edges="31869 31872"/>
	</vehicle>
</routes>
