<!-- generated on 2020-12-18 16:16:59.993615 by ipykernel_launcher.py v1_2_0+5214-53edc58fcd
-->
<tlLogics/>
