<routes>
	<vehicle depart="0.1" departLane="0" departPos="149.52496467731632" departSpeed="14.6258" id="30" type="passenger">
		<route edges="7491"/>
	</vehicle>
	<vehicle depart="0.1" departLane="0" departPos="0" departSpeed="9.509" id="31" type="passenger">
		<route edges="7490 7528 7504"/>
	</vehicle>
	<vehicle depart="0.1" departLane="0" departPos="52.93636377115142" departSpeed="2.5537" id="32" type="passenger">
		<route edges="7499 7517 7488 7506 7494 7526 7491"/>
	</vehicle>
	<vehicle depart="0.1" departLane="0" departPos="0" departSpeed="2.3625" id="33" type="passenger">
		<route edges="7499 7517 7488 7506 7494 7526 7491"/>
	</vehicle>
	<vehicle depart="0.1" departLane="0" departPos="45.51098977867139" departSpeed="0.2152" id="34" type="passenger">
		<route edges="7493 7520 7496 7508 7488 7506 7494 7526 7491"/>
	</vehicle>
	<vehicle depart="0.1" departLane="1" departPos="204.274660573294" departSpeed="0.049" id="36" type="passenger">
		<route edges="7502 7524 7490 7528 7504"/>
	</vehicle>
	<vehicle depart="0.1" departLane="1" departPos="204.274660573294" departSpeed="6.6275" id="37" type="passenger">
		<route edges="7502 7524 7509 7492"/>
	</vehicle>
	<vehicle depart="0.1" departLane="0" departPos="3.6375394193218824" departSpeed="6.0031" id="38" type="passenger">
		<route edges="7529 7490 7528 7504"/>
	</vehicle>
	<vehicle depart="0.1" departLane="0" departPos="180.23836622483512" departSpeed="0.2915" id="39" type="passenger">
		<route edges="7502 7524 7516 7496 7508 7488 7506 7494 7526 7491"/>
	</vehicle>
	<vehicle depart="0.1" departLane="0" departPos="204.24676911543233" departSpeed="5.6939" id="310" type="passenger">
		<route edges="7502 7524 7490 7510 7500"/>
	</vehicle>
	<vehicle depart="0.1" departLane="1" departPos="204.274660573294" departSpeed="6.9096" id="311" type="passenger">
		<route edges="7502 7524 7490 7528 7504"/>
	</vehicle>
	<vehicle depart="0.1" departLane="1" departPos="190.8746978816103" departSpeed="28.4912" id="312" type="passenger">
		<route edges="7504"/>
	</vehicle>
	<vehicle depart="0.1" departLane="0" departPos="204.24676911543233" departSpeed="0.0008" id="313" type="passenger">
		<route edges="7502 7524 7516 7496 7515 7498"/>
	</vehicle>
	<vehicle depart="0.1" departLane="0" departPos="12.679310013404876" departSpeed="7.448" id="314" type="passenger">
		<route edges="7520 7496 7508 7488 7506 7494 7526 7491"/>
	</vehicle>
	<vehicle depart="0.1" departLane="0" departPos="0" departSpeed="11.6373" id="315" type="passenger">
		<route edges="7491"/>
	</vehicle>
	<vehicle depart="0.1" departLane="0" departPos="0" departSpeed="9.5877" id="316" type="passenger">
		<route edges="7495 7529 7490 7528 7504"/>
	</vehicle>
	<vehicle depart="0.1" departLane="0" departPos="203.02547698416438" departSpeed="0.0" id="317" type="passenger">
		<route edges="7502 7524 7516 7496 7508 7488 7506 7494 7526 7491"/>
	</vehicle>
	<vehicle depart="0.1" departLane="0" departPos="204.24676911543233" departSpeed="0.0121" id="318" type="passenger">
		<route edges="7502 7524 7516 7496 7508 7488 7506 7494 7526 7491"/>
	</vehicle>
	<vehicle depart="0.1" departLane="0" departPos="36.00347128117723" departSpeed="1.8043" id="319" type="passenger">
		<route edges="7493 7520 7496 7508 7488 7506 7494 7526 7491"/>
	</vehicle>
	<vehicle depart="0.1" departLane="0" departPos="80.42163482701655" departSpeed="5.3962" id="320" type="passenger">
		<route edges="7500 7507 7491"/>
	</vehicle>
	<vehicle depart="0.1" departLane="1" departPos="0" departSpeed="7.2778" id="321" type="passenger">
		<route edges="7502 7509 7492"/>
	</vehicle>
	<vehicle depart="0.1" departLane="0" departPos="0" departSpeed="10.6153" id="322" type="passenger">
		<route edges="7527 7495 7529 7490 7510 7500"/>
	</vehicle>
	<vehicle depart="0.1" departLane="0" departPos="148.3998877072001" departSpeed="6.9668" id="323" type="passenger">
		<route edges="7502 7516 7496 7508 7488 7506 7494 7526 7491"/>
	</vehicle>
	<vehicle depart="0.1" departLane="0" departPos="55.433563292938395" departSpeed="8.3829" id="324" type="passenger">
		<route edges="7500 7507 7491"/>
	</vehicle>
	<vehicle depart="0.1" departLane="0" departPos="26.50236532041775" departSpeed="1.9226" id="325" type="passenger">
		<route edges="7493 7520 7496 7508 7488 7506 7494 7526 7491"/>
	</vehicle>
	<vehicle depart="0.1" departLane="0" departPos="24.437460206169053" departSpeed="10.8502" id="326" type="passenger">
		<route edges="7487 7527 7495 7529 7490 7510 7500"/>
	</vehicle>
	<vehicle depart="0.1" departLane="0" departPos="0" departSpeed="2.357" id="327" type="passenger">
		<route edges="7499 7517 7488 7506 7494 7526 7491"/>
	</vehicle>
	<vehicle depart="0.1" departLane="1" departPos="0" departSpeed="8.2213" id="328" type="passenger">
		<route edges="7502 7524 7509 7492"/>
	</vehicle>
	<vehicle depart="0.1" departLane="0" departPos="0" departSpeed="10.261" id="329" type="passenger">
		<route edges="7500 7507 7491"/>
	</vehicle>
	<vehicle depart="0.1" departLane="0" departPos="0" departSpeed="1.6459" id="330" type="passenger">
		<route edges="7493 7520 7496 7508 7488 7506 7494 7526 7491"/>
	</vehicle>
	<vehicle depart="0.1" departLane="0" departPos="0" departSpeed="12.0374" id="331" type="passenger">
		<route edges="7494 7526 7507 7491"/>
	</vehicle>
	<vehicle depart="0.1" departLane="0" departPos="108.93452972176807" departSpeed="10.0182" id="332" type="passenger">
		<route edges="7502 7516 7496 7508 7488 7506 7494 7526 7491"/>
	</vehicle>
	<vehicle depart="0.1" departLane="0" departPos="0" departSpeed="11.7639" id="333" type="passenger">
		<route edges="7500 7507 7491"/>
	</vehicle>
	<vehicle depart="0.1" departLane="0" departPos="0" departSpeed="6.5802" id="334" type="passenger">
		<route edges="7518 7487 7522 7498"/>
	</vehicle>
	<vehicle depart="0.1" departLane="0" departPos="0" departSpeed="2.3586" id="336" type="passenger">
		<route edges="7499 7517 7488 7506 7494 7526 7491"/>
	</vehicle>
	<vehicle depart="0.1" departLane="0" departPos="0" departSpeed="1.114" id="337" type="passenger">
		<route edges="7493 7520 7496 7508 7488 7506 7494 7526 7491"/>
	</vehicle>
	<vehicle depart="0.1" departLane="0" departPos="0" departSpeed="9.4136" id="338" type="passenger">
		<route edges="7521 7500 7507 7491"/>
	</vehicle>
	<vehicle depart="0.1" departLane="0" departPos="42.54531651301563" departSpeed="6.6366" id="339" type="passenger">
		<route edges="7497 7525 7518 7487 7527 7495 7529 7490 7510 7500"/>
	</vehicle>
	<vehicle depart="0.1" departLane="0" departPos="0" departSpeed="11.9067" id="340" type="passenger">
		<route edges="7502 7516 7496 7508 7488 7506 7494 7526 7491"/>
	</vehicle>
	<vehicle depart="0.1" departLane="0" departPos="48.59708317299341" departSpeed="8.4539" id="341" type="passenger">
		<route edges="7505 7521 7500 7507 7491"/>
	</vehicle>
	<vehicle depart="0.1" departLane="0" departPos="0" departSpeed="12.3246" id="342" type="passenger">
		<route edges="7502 7502 7509 7492"/>
	</vehicle>
	<vehicle depart="0.1" departLane="0" departPos="28.692153826731882" departSpeed="6.3945" id="343" type="passenger">
		<route edges="7497 7525 7518 7487 7527 7495 7529 7490 7510 7500"/>
	</vehicle>
	<vehicle depart="0.1" departLane="0" departPos="0" departSpeed="2.2088" id="344" type="passenger">
		<route edges="7499 7517 7488 7506 7494 7526 7491"/>
	</vehicle>
	<vehicle depart="0.1" departLane="0" departPos="25.14355721144441" departSpeed="7.4265" id="345" type="passenger">
		<route edges="7505 7521 7500 7507 7491"/>
	</vehicle>
	<vehicle depart="0.1" departLane="0" departPos="0" departSpeed="10.0911" id="346" type="passenger">
		<route edges="7502 7516 7496 7508 7488 7506 7494 7526 7491"/>
	</vehicle>
	<vehicle depart="0.1" departLane="0" departPos="0" departSpeed="5.8331" id="347" type="passenger">
		<route edges="7497 7525 7494 7526 7491"/>
	</vehicle>
	<vehicle depart="0.1" departLane="0" departPos="0" departSpeed="6.1769" id="348" type="passenger">
		<route edges="7505 7521 7500 7507 7491"/>
	</vehicle>
	<vehicle depart="0.1" departLane="0" departPos="0" departSpeed="6.6224" id="349" type="passenger">
		<route edges="7502 7516 7496 7508 7488 7506 7494 7526 7491"/>
	</vehicle>
	<vehicle depart="0.1" departLane="0" departPos="0" departSpeed="4.2278" id="350" type="passenger">
		<route edges="7497 7525 7494 7526 7491"/>
	</vehicle>
	<vehicle depart="0.1" departLane="0" departPos="0" departSpeed="3.1402" id="351" type="passenger">
		<route edges="7505 7521 7500 7507 7491"/>
	</vehicle>
	<vehicle depart="0.1" departLane="0" departPos="0" departSpeed="1.9803" id="352" type="passenger">
		<route edges="7502 7516 7496 7508 7488 7506 7494 7526 7491"/>
	</vehicle>
	<vehicle depart="0.1" departLane="0" departPos="0" departSpeed="0.5898" id="353" type="passenger">
		<route edges="7499 7517 7488 7506 7494 7526 7491"/>
	</vehicle>
</routes>
