<!-- generated on 2020-12-18 17:02:20.017752 by ipykernel_launcher.py v1_2_0+5214-53edc58fcd
-->
<connections>
	<connection contPos="-4.0" from="559" fromLane="0" keepClear="true" to="562" toLane="0"/>
	<connection contPos="-4.0" from="561" fromLane="0" keepClear="true" to="564" toLane="0"/>
	<connection contPos="-4.0" from="561" fromLane="0" keepClear="true" to="563" toLane="0"/>
	<connection contPos="-4.0" from="562" fromLane="0" keepClear="true" to="560" toLane="0"/>
	<connection contPos="-4.0" from="563" fromLane="0" keepClear="true" to="560" toLane="0"/>
	<connection contPos="-4.0" from="564" fromLane="0" keepClear="true" to="558" toLane="0"/>
</connections>
