<!-- generated on 2020-12-18 17:02:20.093497 by ipykernel_launcher.py v1_2_0+5214-53edc58fcd
-->
<tlLogics/>
