<?xml version="1.0" encoding="UTF-8"?>

<!-- generated on Fri Dec 18 17:02:20 2020 by Eclipse SUMO netconvert Version 1.8.0
<configuration xmlns:xsi="http://www.w3.org/2001/XMLSchema-instance" xsi:noNamespaceSchemaLocation="http://sumo.dlr.de/xsd/netconvertConfiguration.xsd">

    <input>
        <node-files value="./converted_scenarios/SUMO/CHN_Sha-4_5_I-1-1/nodes.net.xml"/>
        <edge-files value="./converted_scenarios/SUMO/CHN_Sha-4_5_I-1-1/edges.net.xml"/>
        <connection-files value="./converted_scenarios/SUMO/CHN_Sha-4_5_I-1-1/_connections.net.xml"/>
        <tllogic-files value="./converted_scenarios/SUMO/CHN_Sha-4_5_I-1-1/_tll.net.xml"/>
    </input>

    <output>
        <output-file value="./converted_scenarios/SUMO/CHN_Sha-4_5_I-1-1/CHN_Sha-4_5_I-1-1.net.xml"/>
    </output>

    <processing>
        <plain.extend-edge-shape value="true"/>
        <geometry.remove.keep-edges.explicit value="true"/>
        <geometry.avoid-overlap value="true"/>
        <offset.disable-normalization value="true"/>
    </processing>

    <junctions>
        <no-turnarounds value="true"/>
        <junctions.internal-link-detail value="20"/>
    </junctions>

    <report>
        <aggregate-warnings value="5"/>
    </report>

    <random_number>
        <seed value="1234"/>
    </random_number>

</configuration>
-->

<net version="1.6" junctionCornerDetail="5" junctionLinkDetail="20" limitTurnSpeed="5.50" xmlns:xsi="http://www.w3.org/2001/XMLSchema-instance" xsi:noNamespaceSchemaLocation="http://sumo.dlr.de/xsd/net_file.xsd">

    <location netOffset="0.00,0.00" convBoundary="-79.06,-40.67,-3.10,27.40" origBoundary="-79.06,-40.67,-3.10,27.40" projParameter="!"/>

    <edge id=":1_0" function="internal">
        <lane id=":1_0_0" index="0" disallow="bus truck rail_fast" speed="36.11" length="2.84" width="2.50" shape="-9.12,0.61 -11.96,0.56"/>
    </edge>
    <edge id=":4_0" function="internal">
        <lane id=":4_0_0" index="0" disallow="bus truck rail_fast" speed="36.11" length="2.81" width="2.50" shape="-11.98,-1.94 -9.17,-2.05"/>
    </edge>
    <edge id=":5_0" function="internal">
        <lane id=":5_0_0" index="0" disallow="rail_fast" speed="36.11" length="8.22" width="2.50" shape="-3.71,-0.88 -3.79,-9.10"/>
    </edge>
    <edge id=":5_1" function="internal">
        <lane id=":5_1_0" index="0" disallow="bus truck rail_fast" speed="7.07" length="9.15" width="2.50" shape="-8.43,-2.16 -7.96,-2.28 -7.51,-2.43 -7.08,-2.61 -6.68,-2.82 -6.31,-3.05 -5.96,-3.31 -5.64,-3.60 -5.35,-3.91 -5.08,-4.25 -4.83,-4.61 -4.61,-5.00 -4.42,-5.42 -4.25,-5.87 -4.11,-6.34 -3.99,-6.84 -3.90,-7.37 -3.84,-7.92 -3.80,-8.50 -3.79,-9.10"/>
    </edge>
    <edge id=":8_0" function="internal">
        <lane id=":8_0_0" index="0" disallow="bus truck rail_fast" speed="7.08" length="9.16" width="2.50" shape="-3.59,7.56 -3.62,6.95 -3.67,6.37 -3.75,5.82 -3.85,5.29 -3.98,4.80 -4.13,4.33 -4.31,3.88 -4.51,3.47 -4.74,3.08 -4.99,2.72 -5.27,2.39 -5.57,2.08 -5.90,1.80 -6.25,1.55 -6.63,1.33 -7.03,1.13 -7.46,0.96 -7.91,0.82 -8.39,0.70"/>
    </edge>
    <edge id=":8_1" function="internal">
        <lane id=":8_1_0" index="0" disallow="rail_fast" speed="36.11" length="8.24" width="2.50" shape="-3.59,7.56 -3.71,-0.68"/>
    </edge>

    <edge id="558" from="1" to="2" priority="1" spreadType="center" length="68.52">
        <lane id="558_0" index="0" disallow="rail_fast" speed="36.11" length="68.52" width="2.50" customShape="1" shape="-11.96,0.56 -35.73,0.79 -79.06,0.58"/>
    </edge>
    <edge id="559" from="3" to="4" priority="1" spreadType="center" length="68.48">
        <lane id="559_0" index="0" disallow="rail_fast" speed="36.11" length="68.48" width="2.50" customShape="1" shape="-79.04,-1.92 -35.74,-1.71 -11.98,-1.94"/>
    </edge>
    <edge id="560" from="5" to="6" priority="1" spreadType="center" length="33.62">
        <lane id="560_0" index="0" disallow="rail_fast" speed="36.11" length="33.62" width="2.50" customShape="1" shape="-3.79,-9.10 -3.78,-23.86 -3.76,-40.67"/>
    </edge>
    <edge id="561" from="7" to="8" priority="1" spreadType="center" length="21.89">
        <lane id="561_0" index="0" disallow="rail_fast" speed="36.11" length="21.89" width="2.50" customShape="1" shape="-3.10,27.40 -3.37,16.45 -3.59,7.56"/>
    </edge>
    <edge id="562" from="4" to="5" priority="1" spreadType="center" length="9.62">
        <lane id="562_0" index="0" disallow="bus truck rail_fast" speed="36.11" length="9.62" width="2.50" customShape="1" shape="-9.17,-2.05 -8.77,-2.08 -8.43,-2.16"/>
    </edge>
    <edge id="563" from="8" to="5" priority="1" spreadType="center" length="12.56">
        <lane id="563_0" index="0" disallow="rail_fast" speed="36.11" length="12.56" width="2.50" customShape="1" shape="-3.71,-0.68 -3.71,-0.88"/>
    </edge>
    <edge id="564" from="8" to="1" priority="1" spreadType="center" length="9.65">
        <lane id="564_0" index="0" disallow="bus truck rail_fast" speed="36.11" length="9.65" width="2.50" customShape="1" shape="-8.39,0.70 -8.73,0.63 -9.12,0.61"/>
    </edge>

    <junction id="1" type="priority" x="-10.54" y="0.55" incLanes="564_0" intLanes=":1_0_0" shape="-9.18,1.86 -9.06,-0.63 -11.97,-0.69 -11.95,1.81">
        <request index="0" response="0" foes="0" cont="0"/>
    </junction>
    <junction id="2" type="dead_end" x="-79.06" y="0.58" incLanes="558_0" intLanes="" shape="-79.06,1.83 -79.05,-0.67"/>
    <junction id="3" type="dead_end" x="-79.04" y="-1.92" incLanes="" intLanes="" shape="-79.05,-0.67 -79.04,-3.17"/>
    <junction id="4" type="priority" x="-10.57" y="-1.95" incLanes="559_0" intLanes=":4_0_0" shape="-9.08,-0.80 -9.25,-3.30 -11.99,-3.19 -11.96,-0.69">
        <request index="0" response="0" foes="0" cont="0"/>
    </junction>
    <junction id="5" type="priority" x="-3.79" y="-7.05" incLanes="563_0 562_0" intLanes=":5_0_0 :5_1_0" shape="-4.95,-0.14 -2.46,-0.17 -2.54,-9.10 -5.04,-9.10 -5.64,-6.00 -6.38,-4.88 -7.43,-4.04 -8.77,-3.48 -10.41,-3.21 -6.76,-1.26 -5.76,-1.32 -5.41,-1.18 -5.16,-0.94 -5.01,-0.59">
        <request index="0" response="10" foes="10" cont="0"/>
        <request index="1" response="00" foes="01" cont="0"/>
    </junction>
    <junction id="6" type="dead_end" x="-3.76" y="-40.67" incLanes="560_0" intLanes="" shape="-5.01,-40.67 -2.52,-40.67"/>
    <junction id="7" type="dead_end" x="-3.10" y="27.40" incLanes="" intLanes="" shape="-1.85,27.37 -4.35,27.43"/>
    <junction id="8" type="priority" x="-3.64" y="5.51" incLanes="561_0" intLanes=":8_0_0 :8_1_0" shape="-4.84,7.59 -2.34,7.53 -2.47,-1.42 -4.97,-1.39 -5.16,-0.58 -5.40,-0.34 -5.75,-0.20 -6.19,-0.16 -6.74,-0.23 -10.35,1.81 -7.35,2.56 -6.28,3.38 -5.51,4.49 -5.03,5.89">
        <request index="0" response="00" foes="00" cont="0"/>
        <request index="1" response="00" foes="00" cont="0"/>
    </junction>

    <connection from="559" to="562" fromLane="0" toLane="0" contPos="-4.00" via=":4_0_0" dir="s" state="M"/>
    <connection from="561" to="564" fromLane="0" toLane="0" contPos="-4.00" via=":8_0_0" dir="r" state="M"/>
    <connection from="561" to="563" fromLane="0" toLane="0" contPos="-4.00" via=":8_1_0" dir="s" state="M"/>
    <connection from="562" to="560" fromLane="0" toLane="0" contPos="-4.00" via=":5_1_0" dir="r" state="M"/>
    <connection from="563" to="560" fromLane="0" toLane="0" contPos="-4.00" via=":5_0_0" dir="s" state="m"/>
    <connection from="564" to="558" fromLane="0" toLane="0" contPos="-4.00" via=":1_0_0" dir="s" state="M"/>

    <connection from=":1_0" to="558" fromLane="0" toLane="0" dir="s" state="M"/>
    <connection from=":4_0" to="562" fromLane="0" toLane="0" dir="s" state="M"/>
    <connection from=":5_0" to="560" fromLane="0" toLane="0" dir="s" state="M"/>
    <connection from=":5_1" to="560" fromLane="0" toLane="0" dir="r" state="M"/>
    <connection from=":8_0" to="564" fromLane="0" toLane="0" dir="r" state="M"/>
    <connection from=":8_1" to="563" fromLane="0" toLane="0" dir="s" state="M"/>

</net>
