<routes>
	<vehicle depart="0.1" departLane="0" departPos="45.90855667055162" departSpeed="2.8513" id="30" type="passenger">
		<route edges="558"/>
	</vehicle>
	<vehicle depart="0.1" departLane="0" departPos="0" departSpeed="2.9263" id="33" type="passenger">
		<route edges="558"/>
	</vehicle>
	<vehicle depart="0.1" departLane="0" departPos="40.729418973748544" departSpeed="2.7203" id="34" type="passenger">
		<route edges="559 562 560"/>
	</vehicle>
	<vehicle depart="0.1" departLane="0" departPos="0" departSpeed="2.2464" id="36" type="passenger">
		<route edges="558"/>
	</vehicle>
	<vehicle depart="0.1" departLane="0" departPos="0" departSpeed="2.4847" id="37" type="passenger">
		<route edges="559 562 560"/>
	</vehicle>
	<vehicle depart="0.1" departLane="0" departPos="0" departSpeed="2.2531" id="39" type="passenger">
		<route edges="564 558"/>
	</vehicle>
	<vehicle depart="0.1" departLane="0" departPos="13.403327818110057" departSpeed="2.3471" id="310" type="passenger">
		<route edges="561 563 560"/>
	</vehicle>
	<vehicle depart="0.1" departLane="0" departPos="0" departSpeed="1.7688" id="311" type="passenger">
		<route edges="561 564 558"/>
	</vehicle>
</routes>
