<!-- generated on 2020-12-18 17:02:19.849744 by ipykernel_launcher.py v1_2_0+5214-53edc58fcd
-->
<edges>
	<edge from="1" function="normal" id="558" length="68.51687159181677" numLanes="1" priority="1" speed="36.11111111111111" spreadType="center" to="2">
		<lane allow="moped bicycle pedestrian custom1 trailer evehicle rail_urban ship private truck vip custom2 authority delivery rail_electric taxi tram army hov coach motorcycle passenger bus rail emergency" index="0" length="68.51687159181677" shape="-10.539850000000001,0.54825 -35.7287,0.7945500000000001 -79.055,0.5828" speed="36.11111111111111" width="2.499929769013522"/>
	</edge>
	<edge from="3" function="normal" id="559" length="68.4752115377635" numLanes="1" priority="1" speed="36.11111111111111" spreadType="center" to="4">
		<lane allow="moped bicycle pedestrian custom1 trailer evehicle rail_urban ship private truck vip custom2 authority delivery rail_electric taxi tram army hov coach motorcycle passenger bus rail emergency" index="0" length="68.4752115377635" shape="-79.04275000000001,-1.91715 -35.7393,-1.7054 -10.56925,-1.95055" speed="36.11111111111111" width="2.4999302590272396"/>
	</edge>
	<edge from="5" function="normal" id="560" length="33.6184084600238" numLanes="1" priority="1" speed="36.11111111111111" spreadType="center" to="6">
		<lane allow="moped bicycle pedestrian custom1 trailer evehicle rail_urban ship private truck vip custom2 authority delivery rail_electric taxi tram army hov coach motorcycle passenger bus rail emergency" index="0" length="33.6184084600238" shape="-3.7887500000000003,-7.05045 -3.7767999999999997,-23.85965 -3.7649,-40.66885" speed="36.11111111111111" width="2.497239664109154"/>
	</edge>
	<edge from="7" function="normal" id="561" length="21.894038174124024" numLanes="1" priority="1" speed="36.11111111111111" spreadType="center" to="8">
		<lane allow="moped bicycle pedestrian custom1 trailer evehicle rail_urban ship private truck vip custom2 authority delivery rail_electric taxi tram army hov coach motorcycle passenger bus rail emergency" index="0" length="21.894038174124024" shape="-3.0991999999999997,27.39845 -3.3687500000000004,16.454749999999997 -3.6383,5.51105" speed="36.11111111111111" width="2.4972569451299957"/>
	</edge>
	<edge from="4" function="normal" id="562" length="9.622042297468832" numLanes="1" priority="1" speed="36.11111111111111" spreadType="center" to="5">
		<lane allow="moped bicycle pedestrian custom1 trailer evehicle rail_urban ship private vip custom2 authority delivery rail_electric taxi tram army hov coach motorcycle passenger rail emergency" index="0" length="9.622042297468832" shape="-10.56925,-1.95055 -8.7681,-2.0782000000000003 -7.00875,-2.4829 -5.9148,-2.9842 -4.97195,-3.7291 -4.2833,-4.712350000000001 -3.9012,-5.852 -3.7887500000000003,-7.05045" speed="36.11111111111111" width="2.497239664109154"/>
	</edge>
	<edge from="8" function="normal" id="563" length="12.562400943087324" numLanes="1" priority="1" speed="36.11111111111111" spreadType="center" to="5">
		<lane allow="moped bicycle pedestrian custom1 trailer evehicle rail_urban ship private truck vip custom2 authority delivery rail_electric taxi tram army hov coach motorcycle passenger bus rail emergency" index="0" length="12.562400943087324" shape="-3.6383,5.51105 -3.7135,-0.76965 -3.7887500000000003,-7.05045" speed="36.11111111111111" width="2.497239664109154"/>
	</edge>
	<edge from="8" function="normal" id="564" length="9.645813138532084" numLanes="1" priority="1" speed="36.11111111111111" spreadType="center" to="1">
		<lane allow="moped bicycle pedestrian custom1 trailer evehicle rail_urban ship private vip custom2 authority delivery rail_electric taxi tram army hov coach motorcycle passenger rail emergency" index="0" length="9.645813138532084" shape="-3.6383,5.51105 -3.7786999999999997,4.3129 -4.1851,3.1788499999999997 -4.8916,2.2047499999999998 -5.8519000000000005,1.47755 -6.958399999999999,0.9978000000000001 -8.730350000000001,0.6313 -10.539850000000001,0.54825" speed="36.11111111111111" width="2.4972569451299957"/>
	</edge>
</edges>
