<!-- generated on Tue Feb  9 22:20:40 2021 by Eclipse SUMO netconvert Version 1.8.0
<configuration xmlns:xsi="http://www.w3.org/2001/XMLSchema-instance" xsi:noNamespaceSchemaLocation="http://sumo.dlr.de/xsd/netconvertConfiguration.xsd">

    <input>
        <node-files value="./converted_scenarios/scenario-factory/DEU_Speyer-1_6_I-1-1/DEU_Speyer-1_6_I-1-1.nod.xml"/>
        <edge-files value="./converted_scenarios/scenario-factory/DEU_Speyer-1_6_I-1-1/DEU_Speyer-1_6_I-1-1.edg.xml"/>
        <connection-files value="./converted_scenarios/scenario-factory/DEU_Speyer-1_6_I-1-1/DEU_Speyer-1_6_I-1-1.con.xml"/>
        <tllogic-files value="./converted_scenarios/scenario-factory/DEU_Speyer-1_6_I-1-1/DEU_Speyer-1_6_I-1-1.tll.xml"/>
        <type-files value="/home/zen/commonroad-interactive-benchmarks/install/commonroad-map-tool/crmapconverter/sumo_map/templates/DEU.typ.xml"/>
    </input>

    <output>
        <output-file value="./converted_scenarios/scenario-factory/DEU_Speyer-1_6_I-1-1/DEU_Speyer-1_6_I-1-1.net.xml"/>
    </output>

    <processing>
        <geometry.remove.keep-edges.explicit value="true"/>
        <geometry.avoid-overlap value="true"/>
        <offset.disable-normalization value="true"/>
    </processing>

    <junctions>
        <no-turnarounds value="true"/>
        <junctions.internal-link-detail value="20"/>
    </junctions>

    <report>
        <aggregate-warnings value="5"/>
    </report>

    <random_number>
        <seed value="1234"/>
    </random_number>

</configuration>
--><net xmlns:xsi="http://www.w3.org/2001/XMLSchema-instance" version="1.6" junctionCornerDetail="5" junctionLinkDetail="20" limitTurnSpeed="5.50" xsi:noNamespaceSchemaLocation="http://sumo.dlr.de/xsd/net_file.xsd">

    <location netOffset="0.00,0.00" convBoundary="-1058.76,-719.41,-836.90,-407.14" origBoundary="-1060.29,-719.41,-836.90,-407.14" projParameter="!"/>

    <type id="highway.bridleway" priority="1" speed="2.78" allow="pedestrian" oneway="1" width="2.00"/>
    <type id="highway.bus_guideway" priority="1" speed="27.78" allow="bus" oneway="1"/>
    <type id="highway.cycleway" priority="1" speed="8.33" allow="bicycle" oneway="0" width="1.00"/>
    <type id="highway.footway" priority="1" speed="2.78" allow="pedestrian" oneway="1" width="2.00"/>
    <type id="highway.ford" priority="1" speed="2.78" allow="army" oneway="0"/>
    <type id="highway.living_street" priority="2" speed="2.78" disallow="tram rail_urban rail rail_electric rail_fast ship" oneway="0"/>
    <type id="highway.motorway" priority="14" speed="39.44" allow="private emergency authority army vip passenger hov taxi bus coach delivery truck trailer motorcycle evehicle custom1 custom2" oneway="1"/>
    <type id="highway.motorway_link" priority="9" speed="22.22" allow="private emergency authority army vip passenger hov taxi bus coach delivery truck trailer motorcycle evehicle custom1 custom2" oneway="1"/>
    <type id="highway.path" priority="1" speed="2.78" allow="pedestrian bicycle" oneway="0" width="2.00"/>
    <type id="highway.pedestrian" priority="1" speed="2.78" allow="pedestrian" oneway="1" width="2.00"/>
    <type id="highway.primary" priority="12" speed="27.78" disallow="pedestrian tram rail_urban rail rail_electric rail_fast ship" oneway="0"/>
    <type id="highway.primary_link" priority="7" speed="22.22" disallow="pedestrian tram rail_urban rail rail_electric rail_fast ship" oneway="0"/>
    <type id="highway.raceway" priority="15" speed="83.33" allow="vip" oneway="0"/>
    <type id="highway.residential" priority="3" speed="13.89" disallow="pedestrian tram rail_urban rail rail_electric rail_fast ship" oneway="0"/>
    <type id="highway.secondary" priority="11" speed="27.78" disallow="pedestrian tram rail_urban rail rail_electric rail_fast ship" oneway="0"/>
    <type id="highway.secondary_link" priority="6" speed="22.22" disallow="pedestrian tram rail_urban rail rail_electric rail_fast ship" oneway="0"/>
    <type id="highway.service" priority="1" speed="5.56" allow="pedestrian delivery bicycle" oneway="0"/>
    <type id="highway.stairs" priority="1" speed="1.39" allow="pedestrian" oneway="1" width="2.00"/>
    <type id="highway.step" priority="1" speed="1.39" allow="pedestrian" oneway="1" width="2.00"/>
    <type id="highway.steps" priority="1" speed="1.39" allow="pedestrian" oneway="1" width="2.00"/>
    <type id="highway.tertiary" priority="10" speed="22.22" disallow="pedestrian tram rail_urban rail rail_electric rail_fast ship" oneway="0"/>
    <type id="highway.tertiary_link" priority="5" speed="22.22" disallow="pedestrian tram rail_urban rail rail_electric rail_fast ship" oneway="0"/>
    <type id="highway.track" priority="1" speed="5.56" allow="pedestrian motorcycle moped bicycle" oneway="0"/>
    <type id="highway.trunk" priority="13" speed="27.78" disallow="pedestrian bicycle tram rail_urban rail rail_electric rail_fast ship" oneway="0"/>
    <type id="highway.trunk_link" priority="8" speed="22.22" disallow="pedestrian bicycle tram rail_urban rail rail_electric rail_fast ship" oneway="0"/>
    <type id="highway.unclassified" priority="4" speed="13.89" disallow="pedestrian tram rail_urban rail rail_electric rail_fast ship" oneway="0"/>
    <type id="highway.unsurfaced" priority="1" speed="8.33" disallow="tram rail_urban rail rail_electric rail_fast ship" oneway="0"/>
    <type id="railway.highspeed" priority="21" speed="69.44" allow="rail_fast" oneway="1"/>
    <type id="railway.light_rail" priority="19" speed="27.78" allow="rail_urban" oneway="1"/>
    <type id="railway.preserved" priority="16" speed="27.78" allow="rail" oneway="1"/>
    <type id="railway.rail" priority="20" speed="44.44" allow="rail" oneway="1"/>
    <type id="railway.subway" priority="18" speed="27.78" allow="rail_urban" oneway="1"/>
    <type id="railway.tram" priority="17" speed="13.89" allow="tram" oneway="1"/>

    <edge id=":19_0" function="internal">
        <lane id=":19_0_0" index="0" disallow="pedestrian tram rail_urban rail rail_electric rail_fast ship" speed="36.11" length="2.87" width="3.50" shape="-1043.62,-591.65 -1046.23,-590.46"/>
    </edge>
    <edge id=":27_0" function="internal">
        <lane id=":27_0_0" index="0" disallow="pedestrian tram rail_urban rail rail_electric rail_fast ship" speed="36.11" length="2.87" width="3.49" shape="-1047.64,-593.67 -1045.02,-594.85"/>
    </edge>
    <edge id=":30_0" function="internal">
        <lane id=":30_0_0" index="0" disallow="pedestrian tram rail_urban rail rail_electric rail_fast ship" speed="36.11" length="2.98" width="3.50" shape="-883.22,-478.24 -881.42,-475.86"/>
    </edge>
    <edge id=":34_0" function="internal">
        <lane id=":34_0_0" index="0" disallow="pedestrian tram rail_urban rail rail_electric rail_fast ship" speed="36.11" length="2.98" width="3.50" shape="-884.22,-473.77 -886.02,-476.15"/>
    </edge>
    <edge id=":37_0" function="internal">
        <lane id=":37_0_0" index="0" disallow="pedestrian tram rail_urban rail rail_electric rail_fast ship" speed="11.33" length="28.90" width="3.50" shape="-939.03,-616.79 -940.05,-618.86 -941.22,-620.83 -942.55,-622.65 -944.04,-624.28 -945.75,-625.69 -946.63,-626.25 -947.57,-626.76 -948.55,-627.18 -949.57,-627.52 -950.61,-627.77 -951.68,-627.94 -952.73,-628.03 -954.97,-627.97 -957.18,-627.64 -959.37,-627.08 -962.59,-625.92"/>
    </edge>
    <edge id=":37_1" function="internal">
        <lane id=":37_1_0" index="0" disallow="pedestrian tram rail_urban rail rail_electric rail_fast ship" speed="36.11" length="41.28" width="3.50" shape="-939.03,-616.79 -947.59,-635.58 -956.13,-654.36"/>
    </edge>
    <edge id=":37_2" function="internal">
        <lane id=":37_2_0" index="0" disallow="pedestrian tram rail_urban rail rail_electric rail_fast ship" speed="13.42" length="39.11" width="3.50" shape="-939.03,-616.79 -939.99,-619.08 -941.14,-622.58 -941.70,-625.04 -942.05,-627.54 -942.15,-630.08 -941.96,-632.63 -941.46,-635.16 -940.64,-637.61 -939.53,-639.93 -938.16,-642.09 -936.58,-644.07 -934.81,-645.89 -931.96,-648.28 -928.89,-650.36"/>
    </edge>
    <edge id=":37_3" function="internal">
        <lane id=":37_3_0" index="0" disallow="pedestrian tram rail_urban rail rail_electric rail_fast ship" speed="12.50" length="33.83" width="3.50" shape="-927.20,-647.28 -929.79,-645.53 -932.31,-643.42 -933.83,-641.85 -935.20,-640.13 -936.38,-638.28 -937.32,-636.30 -938.01,-634.22 -938.44,-632.07 -938.60,-629.88 -938.51,-627.69 -938.21,-625.52 -937.72,-623.38 -936.69,-620.25 -935.84,-618.23"/>
    </edge>
    <edge id=":37_4" function="internal">
        <lane id=":37_4_0" index="0" disallow="pedestrian tram rail_urban rail rail_electric rail_fast ship" speed="36.11" length="41.34" width="3.50" shape="-927.20,-647.29 -956.18,-629.63 -962.59,-625.92"/>
    </edge>
    <edge id=":37_5" function="internal">
        <lane id=":37_5_0" index="0" disallow="pedestrian tram rail_urban rail rail_electric rail_fast ship" speed="12.02" length="35.00" width="3.50" shape="-927.20,-647.29 -928.19,-646.70 -931.62,-644.94 -934.07,-643.95 -936.63,-643.19 -939.28,-642.76 -940.69,-642.68 -942.08,-642.73 -943.48,-642.90 -944.86,-643.22 -946.20,-643.67 -947.49,-644.26 -948.70,-644.98 -949.84,-645.80 -950.89,-646.70 -951.87,-647.70 -953.53,-649.79 -954.95,-652.04 -956.13,-654.36"/>
    </edge>
    <edge id=":37_6" function="internal">
        <lane id=":37_6_0" index="0" disallow="pedestrian tram rail_urban rail rail_electric rail_fast ship" speed="10.99" length="29.13" width="3.50" shape="-952.96,-655.83 -951.94,-653.84 -950.75,-651.95 -949.34,-650.20 -948.55,-649.41 -947.69,-648.69 -946.78,-648.04 -945.81,-647.48 -944.78,-647.03 -943.72,-646.68 -942.62,-646.45 -941.51,-646.32 -940.39,-646.30 -939.27,-646.37 -937.06,-646.75 -934.92,-647.39 -932.84,-648.24 -929.86,-649.79 -928.89,-650.36"/>
    </edge>
    <edge id=":37_7" function="internal">
        <lane id=":37_7_0" index="0" disallow="pedestrian tram rail_urban rail rail_electric rail_fast ship" speed="36.11" length="41.31" width="3.50" shape="-952.96,-655.83 -944.40,-637.04 -935.84,-618.23"/>
    </edge>
    <edge id=":37_8" function="internal">
        <lane id=":37_8_0" index="0" disallow="pedestrian tram rail_urban rail rail_electric rail_fast ship" speed="12.38" length="36.17" width="3.50" shape="-952.96,-655.83 -951.98,-653.54 -950.76,-650.02 -950.16,-647.54 -949.78,-645.00 -949.70,-642.40 -949.96,-639.81 -950.25,-638.47 -950.64,-637.19 -951.14,-635.95 -951.75,-634.75 -952.47,-633.58 -954.12,-631.54 -956.04,-629.75 -958.14,-628.24 -960.35,-626.96 -962.59,-625.92"/>
    </edge>
    <edge id=":37_9" function="internal">
        <lane id=":37_9_0" index="0" disallow="pedestrian tram rail_urban rail rail_electric rail_fast ship" speed="11.40" length="30.51" width="3.50" shape="-964.00,-629.12 -962.03,-630.04 -960.14,-631.13 -958.37,-632.41 -956.78,-633.91 -955.43,-635.62 -954.87,-636.55 -954.39,-637.53 -953.99,-638.54 -953.68,-639.59 -953.46,-640.66 -953.26,-642.83 -953.35,-645.01 -953.68,-647.16 -954.21,-649.28 -955.28,-652.37 -956.13,-654.36"/>
    </edge>
    <edge id=":37_10" function="internal">
        <lane id=":37_10_0" index="0" disallow="pedestrian tram rail_urban rail rail_electric rail_fast ship" speed="36.11" length="41.04" width="3.50" shape="-964.00,-629.12 -957.80,-632.73 -928.89,-650.36"/>
    </edge>
    <edge id=":37_11" function="internal">
        <lane id=":37_11_0" index="0" disallow="pedestrian tram rail_urban rail rail_electric rail_fast ship" speed="12.33" length="34.44" width="3.50" shape="-964.00,-629.12 -960.27,-630.47 -957.70,-631.12 -955.08,-631.51 -952.43,-631.58 -951.11,-631.48 -949.80,-631.27 -948.51,-630.96 -947.26,-630.54 -946.04,-630.01 -944.87,-629.39 -943.76,-628.66 -941.72,-626.98 -939.93,-625.03 -938.37,-622.88 -937.02,-620.61 -935.84,-618.23"/>
    </edge>
    <edge id=":38_0" function="internal">
        <lane id=":38_0_0" index="0" disallow="pedestrian tram rail_urban rail rail_electric rail_fast ship" speed="9.86" length="31.70" width="3.50" shape="-900.59,-492.23 -902.61,-493.79 -903.68,-494.47 -904.80,-495.05 -905.98,-495.52 -907.21,-495.81 -908.48,-495.88 -909.72,-495.67 -910.89,-495.19 -911.93,-494.46 -912.83,-493.57 -913.60,-492.57 -914.27,-491.49 -914.84,-490.36 -915.35,-489.20 -916.19,-486.81 -916.86,-484.37 -917.63,-480.64 -918.20,-476.87"/>
    </edge>
    <edge id=":38_1" function="internal">
        <lane id=":38_1_0" index="0" disallow="pedestrian tram rail_urban rail rail_electric rail_fast ship" speed="16.95" length="31.48" width="3.50" shape="-900.59,-492.23 -904.75,-496.03 -907.85,-499.29 -909.99,-501.90 -911.93,-504.66 -913.61,-507.58 -914.95,-510.67 -915.60,-512.82 -916.04,-515.03 -916.23,-517.27 -916.22,-518.38"/>
    </edge>
    <edge id=":38_2" function="internal">
        <lane id=":38_2_0" index="0" disallow="pedestrian tram rail_urban rail rail_electric rail_fast ship" speed="16.08" length="28.41" width="3.50" shape="-912.73,-518.36 -912.73,-517.34 -912.56,-515.40 -912.17,-513.49 -911.58,-511.63 -910.35,-508.89 -908.82,-506.28 -907.03,-503.79 -905.06,-501.42 -902.19,-498.42 -898.34,-494.91"/>
    </edge>
    <edge id=":38_3" function="internal">
        <lane id=":38_3_0" index="0" disallow="pedestrian tram rail_urban rail rail_electric rail_fast ship" speed="36.11" length="41.88" width="3.50" shape="-912.72,-518.36 -912.82,-516.15 -913.29,-509.86 -914.18,-502.56 -916.66,-487.13 -918.20,-476.87"/>
    </edge>
    <edge id=":38_4" function="internal">
        <lane id=":38_4_0" index="0" disallow="pedestrian tram rail_urban rail rail_electric rail_fast ship" speed="36.11" length="41.45" width="3.50" shape="-921.67,-477.32 -920.13,-487.58 -917.66,-502.92 -916.78,-510.12 -916.31,-516.32 -916.22,-518.38"/>
    </edge>
    <edge id=":38_5" function="internal">
        <lane id=":38_5_0" index="0" disallow="pedestrian tram rail_urban rail rail_electric rail_fast ship" speed="10.99" length="39.66" width="3.50" shape="-921.67,-477.32 -921.00,-481.70 -920.07,-486.03 -919.24,-488.92 -918.18,-491.75 -917.51,-493.17 -916.73,-494.55 -915.80,-495.88 -914.69,-497.12 -913.36,-498.22 -911.80,-499.06 -910.08,-499.57 -908.31,-499.70 -906.58,-499.50 -904.96,-499.04 -903.45,-498.40 -902.06,-497.63 -900.73,-496.77 -898.34,-494.91"/>
    </edge>
    <edge id=":39_0" function="internal">
        <lane id=":39_0_0" index="0" disallow="pedestrian tram rail_urban rail rail_electric rail_fast ship" speed="36.11" length="37.59" width="3.50" shape="-919.35,-552.08 -919.55,-553.09 -921.96,-564.33 -924.98,-576.50 -928.35,-588.56"/>
    </edge>
    <edge id=":39_1" function="internal">
        <lane id=":39_1_0" index="0" disallow="pedestrian tram rail_urban rail rail_electric rail_fast ship" speed="13.64" length="34.59" width="3.50" shape="-919.35,-552.08 -919.71,-554.52 -919.84,-556.99 -919.69,-559.46 -919.25,-561.89 -918.52,-564.24 -917.49,-566.49 -916.20,-568.60 -914.69,-570.55 -912.98,-572.34 -910.16,-574.73 -907.09,-576.82 -903.86,-578.63 -902.75,-579.19"/>
    </edge>
    <edge id=":39_2" function="internal">
        <lane id=":39_2_0" index="0" disallow="pedestrian tram rail_urban rail rail_electric rail_fast ship" speed="12.73" length="29.99" width="3.50" shape="-901.24,-576.03 -902.21,-575.55 -905.12,-573.92 -907.85,-572.07 -910.36,-569.97 -911.84,-568.44 -913.16,-566.78 -914.28,-565.00 -915.16,-563.11 -915.80,-561.12 -916.19,-559.07 -916.33,-556.98 -916.23,-554.86 -915.91,-552.71"/>
    </edge>
    <edge id=":39_3" function="internal">
        <lane id=":39_3_0" index="0" disallow="pedestrian tram rail_urban rail rail_electric rail_fast ship" speed="11.75" length="35.61" width="3.50" shape="-901.24,-576.03 -903.63,-574.97 -906.14,-574.07 -908.77,-573.42 -911.47,-573.10 -912.90,-573.10 -914.32,-573.22 -915.72,-573.49 -917.10,-573.90 -918.43,-574.46 -919.69,-575.16 -920.86,-575.98 -921.94,-576.90 -922.94,-577.93 -924.60,-580.09 -925.96,-582.43 -927.07,-584.87 -928.35,-588.56"/>
    </edge>
    <edge id=":39_4" function="internal">
        <lane id=":39_4_0" index="0" disallow="pedestrian tram rail_urban rail rail_electric rail_fast ship" speed="10.72" length="29.41" width="3.50" shape="-924.99,-589.56 -923.89,-586.36 -922.95,-584.30 -921.82,-582.34 -920.44,-580.54 -919.66,-579.73 -918.80,-578.99 -917.88,-578.34 -916.89,-577.79 -915.85,-577.35 -914.77,-577.02 -913.66,-576.81 -912.53,-576.70 -911.40,-576.70 -909.15,-576.96 -906.96,-577.51 -904.82,-578.26 -902.75,-579.19"/>
    </edge>
    <edge id=":39_5" function="internal">
        <lane id=":39_5_0" index="0" disallow="pedestrian tram rail_urban rail rail_electric rail_fast ship" speed="36.11" length="37.96" width="3.50" shape="-924.99,-589.56 -921.59,-577.39 -918.55,-565.11 -916.12,-553.78 -915.91,-552.71"/>
    </edge>

    <edge id="46661" from="29" to="37" priority="3" type="highway.residential" spreadType="center" length="70.00" shape="-982.24,-719.41 -944.22,-637.95">
        <lane id="46661_0" index="0" disallow="pedestrian tram rail_urban rail rail_electric rail_fast ship" speed="36.11" length="70.00" width="3.50" customShape="1" shape="-982.24,-719.41 -970.23,-693.35 -952.95,-655.83"/>
    </edge>
    <edge id="46662" from="37" to="18" priority="3" type="highway.residential" spreadType="center" length="70.00" shape="-947.39,-636.47 -985.42,-717.94">
        <lane id="46662_0" index="0" disallow="pedestrian tram rail_urban rail rail_electric rail_fast ship" speed="36.11" length="70.00" width="3.50" customShape="1" shape="-956.13,-654.36 -973.41,-691.88 -985.42,-717.94"/>
    </edge>
    <edge id="46724" from="28" to="37" priority="3" type="highway.residential" spreadType="center" length="70.15" shape="-913.26,-702.97 -944.25,-636.47">
        <lane id="46724_0" index="0" disallow="pedestrian tram rail_urban rail rail_electric rail_fast ship" speed="36.11" length="70.15" width="3.50" customShape="1" shape="-913.26,-702.97 -913.14,-699.76 -912.62,-695.62 -912.00,-693.09 -910.95,-690.14 -909.26,-686.33 -905.89,-679.26 -904.57,-675.85 -903.75,-672.83 -903.40,-670.25 -903.42,-667.64 -903.74,-665.58 -904.32,-663.58 -905.16,-661.67 -906.26,-659.90 -907.59,-658.29 -909.11,-656.86 -911.21,-655.31 -914.38,-653.49 -923.86,-649.13 -927.21,-647.30"/>
    </edge>
    <edge id="46725" from="37" to="17" priority="3" type="highway.residential" spreadType="center" length="70.00" shape="-947.43,-637.92 -916.83,-706.57">
        <lane id="46725_0" index="0" disallow="pedestrian tram rail_urban rail rail_electric rail_fast ship" speed="36.11" length="70.00" width="3.50" customShape="1" shape="-928.89,-650.36 -925.63,-652.16 -916.35,-656.42 -913.39,-658.07 -911.49,-659.43 -910.16,-660.66 -909.03,-662.03 -908.12,-663.56 -907.46,-665.21 -907.04,-666.95 -906.88,-668.73 -907.02,-671.03 -907.49,-673.31 -908.39,-676.06 -909.74,-679.25 -913.03,-686.16 -914.64,-690.03 -915.61,-693.09 -916.18,-695.74 -916.66,-699.96 -916.84,-705.16 -916.83,-706.57"/>
    </edge>
    <edge id="46751" from="35" to="34" priority="3" type="highway.residential" spreadType="center" length="68.50">
        <lane id="46751_0" index="0" disallow="pedestrian tram rail_urban rail rail_electric rail_fast ship" speed="36.11" length="68.50" width="3.50" customShape="1" shape="-839.73,-421.81 -853.55,-435.96 -860.76,-443.81 -867.01,-451.15 -873.93,-459.91 -884.22,-473.77"/>
    </edge>
    <edge id="46752" from="30" to="31" priority="3" type="highway.residential" spreadType="center" length="68.51">
        <lane id="46752_0" index="0" disallow="pedestrian tram rail_urban rail rail_electric rail_fast ship" speed="36.11" length="68.51" width="3.50" customShape="1" shape="-881.42,-475.86 -871.18,-462.07 -864.32,-453.38 -858.13,-446.12 -850.99,-438.34 -836.90,-423.92"/>
    </edge>
    <edge id="46779" from="34" to="38" priority="3" type="highway.residential" spreadType="center" length="21.76" shape="-885.12,-474.97 -912.40,-494.99">
        <lane id="46779_0" index="0" disallow="pedestrian tram rail_urban rail rail_electric rail_fast ship" speed="36.11" length="21.76" width="3.50" customShape="1" shape="-886.02,-476.15 -888.96,-479.98 -893.02,-484.78 -896.60,-488.56 -900.44,-492.10 -900.60,-492.24"/>
    </edge>
    <edge id="46812" from="15" to="39" priority="3" type="highway.residential" spreadType="center" length="70.02" shape="-846.32,-558.20 -915.80,-571.31">
        <lane id="46812_0" index="0" disallow="pedestrian tram rail_urban rail rail_electric rail_fast ship" speed="36.11" length="70.02" width="3.50" customShape="1" shape="-846.32,-558.20 -847.74,-562.05 -849.53,-566.21 -851.37,-569.79 -853.22,-572.78 -855.36,-575.58 -857.43,-577.77 -859.73,-579.72 -862.24,-581.39 -864.93,-582.76 -867.76,-583.80 -870.70,-584.48 -873.70,-584.78 -876.72,-584.73 -880.21,-584.26 -883.63,-583.45 -887.93,-582.03 -893.05,-579.92 -901.26,-576.02"/>
    </edge>
    <edge id="46813" from="39" to="9" priority="3" type="highway.residential" spreadType="center" length="69.99" shape="-915.23,-574.76 -845.12,-564.84">
        <lane id="46813_0" index="0" disallow="pedestrian tram rail_urban rail rail_electric rail_fast ship" speed="36.11" length="69.99" width="3.50" customShape="1" shape="-902.75,-579.19 -894.30,-583.19 -888.94,-585.39 -884.39,-586.87 -880.72,-587.72 -876.96,-588.21 -873.67,-588.28 -870.38,-587.97 -867.15,-587.26 -864.03,-586.17 -861.07,-584.74 -858.28,-582.99 -855.71,-580.93 -853.38,-578.62 -851.00,-575.67 -848.92,-572.52 -846.89,-568.77 -845.12,-564.84"/>
    </edge>
    <edge id="46846" from="38" to="25" priority="3" type="highway.residential" spreadType="center" length="70.00" shape="-909.56,-496.09 -924.15,-407.14">
        <lane id="46846_0" index="0" disallow="pedestrian tram rail_urban rail rail_electric rail_fast ship" speed="36.11" length="70.00" width="3.50" customShape="1" shape="-918.20,-476.87 -918.77,-472.38 -920.41,-457.83 -924.15,-407.14"/>
    </edge>
    <edge id="46847" from="32" to="38" priority="3" type="highway.residential" spreadType="center" length="70.01" shape="-927.62,-407.61 -913.01,-496.66">
        <lane id="46847_0" index="0" disallow="pedestrian tram rail_urban rail rail_electric rail_fast ship" speed="36.11" length="70.01" width="3.50" customShape="1" shape="-927.62,-407.61 -923.89,-458.20 -922.25,-472.81 -921.67,-477.35"/>
    </edge>
    <edge id="46849" from="39" to="38" priority="3" type="highway.residential" spreadType="center" length="34.64" shape="-913.69,-573.16 -909.55,-496.43">
        <lane id="46849_0" index="0" disallow="pedestrian tram rail_urban rail rail_electric rail_fast ship" speed="36.11" length="34.64" width="3.50" customShape="1" shape="-915.91,-552.71 -915.08,-548.23 -913.86,-540.16 -913.05,-532.04 -912.69,-524.90 -912.73,-518.29"/>
    </edge>
    <edge id="46850" from="38" to="39" priority="3" type="highway.residential" spreadType="center" length="33.92" shape="-913.04,-496.25 -917.18,-572.97">
        <lane id="46850_0" index="0" disallow="pedestrian tram rail_urban rail rail_electric rail_fast ship" speed="36.11" length="33.92" width="3.50" customShape="1" shape="-916.22,-518.38 -916.19,-524.85 -916.54,-531.81 -917.33,-539.75 -918.54,-547.66 -919.36,-552.08"/>
    </edge>
    <edge id="46852" from="37" to="39" priority="3" type="highway.residential" spreadType="center" length="30.71" shape="-944.23,-637.99 -913.83,-573.73">
        <lane id="46852_0" index="0" disallow="pedestrian tram rail_urban rail rail_electric rail_fast ship" speed="36.11" length="30.71" width="3.50" customShape="1" shape="-935.84,-618.23 -934.59,-615.43 -930.37,-605.55 -927.27,-597.43 -924.99,-589.54"/>
    </edge>
    <edge id="46853" from="39" to="37" priority="3" type="highway.residential" spreadType="center" length="30.24" shape="-917.00,-572.24 -947.40,-636.50">
        <lane id="46853_0" index="0" disallow="pedestrian tram rail_urban rail rail_electric rail_fast ship" speed="36.11" length="30.24" width="3.50" customShape="1" shape="-928.35,-588.56 -930.59,-596.32 -933.63,-604.28 -937.80,-614.03 -939.04,-616.80"/>
    </edge>
    <edge id="46873" from="27" to="37" priority="3" type="highway.residential" spreadType="center" length="88.02" shape="-1046.34,-594.29 -946.50,-638.85">
        <lane id="46873_0" index="0" disallow="pedestrian tram rail_urban rail rail_electric rail_fast ship" speed="36.11" length="88.02" width="3.49" customShape="1" shape="-1045.02,-594.85 -1005.15,-611.71 -963.95,-629.14"/>
    </edge>
    <edge id="46874" from="37" to="19" priority="3" type="highway.residential" spreadType="center" length="87.98" shape="-945.08,-635.66 -1044.94,-591.09">
        <lane id="46874_0" index="0" disallow="pedestrian tram rail_urban rail rail_electric rail_fast ship" speed="36.11" length="87.98" width="3.50" customShape="1" shape="-962.59,-625.92 -1003.79,-608.49 -1043.62,-591.65"/>
    </edge>
    <edge id="47044" from="33" to="27" priority="3" type="highway.residential" spreadType="center" length="31.94">
        <lane id="47044_0" index="0" disallow="pedestrian tram rail_urban rail rail_electric rail_fast ship" speed="36.11" length="31.94" width="3.50" customShape="1" shape="-1058.76,-567.32 -1059.73,-570.89 -1060.14,-573.41 -1060.29,-575.98 -1060.13,-578.58 -1059.61,-581.12 -1059.19,-582.41 -1058.68,-583.64 -1058.07,-584.82 -1057.35,-585.97 -1055.74,-588.00 -1053.88,-589.80 -1051.83,-591.35 -1049.66,-592.68 -1047.64,-593.67"/>
    </edge>
    <edge id="47095" from="19" to="26" priority="3" type="highway.residential" spreadType="center" length="26.76">
        <lane id="47095_0" index="0" disallow="pedestrian tram rail_urban rail rail_electric rail_fast ship" speed="36.11" length="26.76" width="3.50" customShape="1" shape="-1046.23,-590.46 -1047.86,-589.67 -1049.71,-588.54 -1051.44,-587.23 -1053.01,-585.72 -1054.35,-584.02 -1054.93,-583.10 -1055.43,-582.14 -1055.85,-581.14 -1056.18,-580.11 -1056.62,-577.99 -1056.76,-575.82 -1056.63,-573.66 -1056.28,-571.52 -1055.42,-568.38"/>
    </edge>
    <edge id="47132" from="38" to="30" priority="3" type="highway.residential" spreadType="center" length="22.55" shape="-910.32,-497.80 -882.31,-477.06">
        <lane id="47132_0" index="0" disallow="pedestrian tram rail_urban rail rail_electric rail_fast ship" speed="36.11" length="22.55" width="3.50" customShape="1" shape="-898.34,-494.91 -898.24,-494.82 -898.14,-494.74 -894.17,-491.08 -890.45,-487.15 -886.26,-482.20 -883.22,-478.24"/>
    </edge>

    <junction id="15" type="dead_end" x="-846.32" y="-558.20" incLanes="" intLanes="" shape="-844.68,-558.80 -847.96,-557.59" rightOfWay="edgePriority"/>
    <junction id="17" type="dead_end" x="-916.83" y="-706.57" incLanes="46725_0" intLanes="" shape="-918.58,-706.58 -915.08,-706.55" rightOfWay="edgePriority"/>
    <junction id="18" type="dead_end" x="-985.42" y="-717.94" incLanes="46662_0" intLanes="" shape="-987.01,-717.21 -983.83,-718.68" rightOfWay="edgePriority"/>
    <junction id="19" type="priority" x="-1044.94" y="-591.09" incLanes="46874_0" intLanes=":19_0_0" shape="-1042.94,-590.04 -1044.30,-593.26 -1047.00,-592.04 -1045.47,-588.89" rightOfWay="edgePriority">
        <request index="0" response="0" foes="0" cont="0"/>
    </junction>
    <junction id="25" type="dead_end" x="-924.15" y="-407.14" incLanes="46846_0" intLanes="" shape="-922.40,-407.01 -925.89,-407.27" rightOfWay="edgePriority"/>
    <junction id="26" type="dead_end" x="-1055.42" y="-568.38" incLanes="47095_0" intLanes="" shape="-1053.73,-568.84 -1057.11,-567.92" rightOfWay="edgePriority"/>
    <junction id="27" type="priority" x="-1046.34" y="-594.29" incLanes="47044_0" intLanes=":27_0_0" shape="-1044.34,-593.25 -1045.70,-596.46 -1048.40,-595.24 -1046.87,-592.09" rightOfWay="edgePriority">
        <request index="0" response="0" foes="0" cont="0"/>
    </junction>
    <junction id="28" type="dead_end" x="-913.26" y="-702.97" incLanes="" intLanes="" shape="-915.01,-702.90 -911.52,-703.04" rightOfWay="edgePriority"/>
    <junction id="29" type="dead_end" x="-982.24" y="-719.41" incLanes="" intLanes="" shape="-983.83,-718.68 -980.65,-720.14" rightOfWay="edgePriority"/>
    <junction id="30" type="priority" x="-882.31" y="-477.06" incLanes="47132_0" intLanes=":30_0_0" shape="-882.82,-474.82 -880.01,-476.90 -881.83,-479.31 -884.61,-477.18" rightOfWay="edgePriority">
        <request index="0" response="0" foes="0" cont="0"/>
    </junction>
    <junction id="31" type="dead_end" x="-836.90" y="-423.92" incLanes="46752_0" intLanes="" shape="-835.65,-425.15 -838.15,-422.70" rightOfWay="edgePriority"/>
    <junction id="32" type="dead_end" x="-927.62" y="-407.61" incLanes="" intLanes="" shape="-925.88,-407.48 -929.37,-407.74" rightOfWay="edgePriority"/>
    <junction id="33" type="dead_end" x="-1058.76" y="-567.32" incLanes="" intLanes="" shape="-1057.07,-567.78 -1060.45,-566.87" rightOfWay="edgePriority"/>
    <junction id="34" type="priority" x="-885.12" y="-474.97" incLanes="46751_0" intLanes=":34_0_0" shape="-885.63,-472.73 -882.82,-474.81 -884.64,-477.22 -887.41,-475.09" rightOfWay="edgePriority">
        <request index="0" response="0" foes="0" cont="0"/>
    </junction>
    <junction id="35" type="dead_end" x="-839.73" y="-421.81" incLanes="" intLanes="" shape="-838.48,-423.04 -840.98,-420.59" rightOfWay="edgePriority"/>
    <junction id="37" type="priority" x="-945.82" y="-637.25" incLanes="46853_0 46724_0 46661_0 46873_0" intLanes=":37_0_0 :37_1_0 :37_2_0 :37_3_0 :37_4_0 :37_5_0 :37_6_0 :37_7_0 :37_8_0 :37_9_0 :37_10_0 :37_11_0" shape="-940.63,-616.08 -934.25,-618.95 -936.28,-624.71 -936.97,-629.95 -936.33,-634.68 -934.34,-638.89 -931.02,-642.59 -926.36,-645.77 -929.74,-651.89 -934.65,-649.64 -939.04,-648.60 -942.91,-648.77 -946.25,-650.15 -949.07,-652.75 -951.37,-656.56 -957.72,-653.63 -955.78,-648.35 -955.07,-643.66 -955.60,-639.55 -957.37,-636.03 -960.38,-633.09 -964.63,-630.74 -961.91,-624.30 -957.21,-625.81 -952.98,-626.17 -949.20,-625.37 -945.88,-623.43 -943.03,-620.33">
        <request index="0" response="000000000000" foes="000100010000" cont="0"/>