<routes>
	<vehicle depart="0.1" departLane="0" departPos="72.49988775278207" departSpeed="0.10032387" id="32" type="passenger">
		<route edges="102438 102723"/>
	</vehicle>
	<vehicle depart="0.1" departLane="0" departPos="69.94185596214696" departSpeed="0.11275852" id="34" type="passenger">
		<route edges="102648 102723"/>
	</vehicle>
	<vehicle depart="0.1" departLane="0" departPos="57.7007672131956" departSpeed="0.17020295" id="38" type="passenger">
		<route edges="102648 102723"/>
	</vehicle>
	<vehicle depart="0.1" departLane="0" departPos="59.714280160247895" departSpeed="0.1881061" id="311" type="passenger">
		<route edges="102438 102723"/>
	</vehicle>
	<vehicle depart="0.1" departLane="0" departPos="49.833272517225154" departSpeed="0.41005244" id="313" type="passenger">
		<route edges="102648 102723"/>
	</vehicle>
	<vehicle depart="0.1" departLane="0" departPos="6.676172470578994" departSpeed="0.68982659" id="320" type="passenger">
		<route edges=":13_4 102647"/>
	</vehicle>
	<vehicle depart="0.1" departLane="0" departPos="6.378090383733609" departSpeed="12.216137" id="321" type="passenger">
		<route edges="102647"/>
	</vehicle>
	<vehicle depart="0.1" departLane="0" departPos="13.47885169653748" departSpeed="12.187144" id="329" type="passenger">
		<route edges=":13_1 102647"/>
	</vehicle>
	<vehicle depart="0.1" departLane="0" departPos="3.565867363511559" departSpeed="4.2987946" id="335" type="motorcycle">
		<route edges="102775 102647"/>
	</vehicle>
	<vehicle depart="0.1" departLane="0" departPos="13.978817125328519" departSpeed="1.0509668" id="31" type="truck">
		<route edges=":13_2 102723"/>
	</vehicle>
</routes>
