<routes>
	<vehicle depart="0.1" departLane="0" departPos="5.190866506446136" departSpeed="6.9000388" id="314" type="bicycle">
		<route edges="216 218"/>
	</vehicle>
	<vehicle depart="0.1" departLane="0" departPos="49.00526494626289" departSpeed="6.8854687" id="321" type="bicycle">
		<route edges="218 220"/>
	</vehicle>
	<vehicle depart="0.1" departLane="0" departPos="73.20832587111944" departSpeed="5.6576046" id="335" type="bus">
		<route edges="226 208 210"/>
	</vehicle>
	<vehicle depart="0.1" departLane="0" departPos="48.421394733056594" departSpeed="0.0" id="31" type="passenger">
		<route edges="206 208"/>
	</vehicle>
	<vehicle depart="0.1" departLane="0" departPos="40.977133770770436" departSpeed="0.0" id="35" type="passenger">
		<route edges="206 208"/>
	</vehicle>
	<vehicle depart="0.1" departLane="0" departPos="33.64063908753087" departSpeed="0.0" id="36" type="passenger">
		<route edges="206 208"/>
	</vehicle>
	<vehicle depart="0.1" departLane="0" departPos="28.39787245523799" departSpeed="0.0" id="37" type="passenger">
		<route edges="216 218"/>
	</vehicle>
	<vehicle depart="0.1" departLane="0" departPos="21.52495918247563" departSpeed="0.078156857" id="313" type="passenger">
		<route edges="216 218"/>
	</vehicle>
	<vehicle depart="0.1" departLane="0" departPos="15.92366126171384" departSpeed="5.1171886e-05" id="316" type="passenger">
		<route edges="206 208"/>
	</vehicle>
	<vehicle depart="0.1" departLane="0" departPos="8.611062585234539" departSpeed="0.00040195921" id="317" type="passenger">
		<route edges="206 208"/>
	</vehicle>
	<vehicle depart="0.1" departLane="0" departPos="14.119344829477543" departSpeed="0.57852147" id="318" type="passenger">
		<route edges="216 218"/>
	</vehicle>
	<vehicle depart="0.1" departLane="0" departPos="10.513060968321607" departSpeed="4.5734759" id="324" type="passenger">
		<route edges=":28_0 216 218"/>
	</vehicle>
	<vehicle depart="0.1" departLane="0" departPos="21.351510841931443" departSpeed="9.547658" id="329" type="passenger">
		<route edges="208 210"/>
	</vehicle>
	<vehicle depart="0.1" departLane="0" departPos="31.603048534324536" departSpeed="6.3558507" id="331" type="passenger">
		<route edges="218 220"/>
	</vehicle>
	<vehicle depart="0.1" departLane="0" departPos="7.909944621342406" departSpeed="6.5527881" id="334" type="passenger">
		<route edges="218 220"/>
	</vehicle>
	<vehicle depart="0.1" departLane="0" departPos="5.936922798985506" departSpeed="6.1484823" id="337" type="passenger">
		<route edges=":30_0 218 220"/>
	</vehicle>
	<vehicle depart="0.1" departLane="0" departPos="50.73738337015991" departSpeed="6.5042539" id="338" type="passenger">
		<route edges="226 208 210"/>
	</vehicle>
	<vehicle depart="0.1" departLane="0" departPos="33.88723506016037" departSpeed="7.5377223" id="341" type="passenger">
		<route edges="226 208 210"/>
	</vehicle>
	<vehicle depart="0.1" departLane="0" departPos="2.5" departSpeed="5.222402" id="342" type="passenger">
		<route edges="1910 757 218 220"/>
	</vehicle>
	<vehicle depart="0.1" departLane="0" departPos="19.002783770002758" departSpeed="6.464916" id="343" type="passenger">
		<route edges="226 208 210"/>
	</vehicle>
	<vehicle depart="0.1" departLane="0" departPos="10.993637200017217" departSpeed="4.1746014" id="344" type="passenger">
		<route edges="760 1910 757 218 220"/>
	</vehicle>
	<vehicle depart="0.1" departLane="0" departPos="8.74568688492289" departSpeed="3.7924001" id="346" type="passenger">
		<route edges="226 208"/>
	</vehicle>
	<vehicle depart="0.1" departLane="0" departPos="1.25" departSpeed="0.0" id="311" type="motorcycle">
		<route edges=":29_0 208"/>
	</vehicle>
	<vehicle depart="0.1" departLane="0" departPos="15.711055174720197" departSpeed="10.497642" id="332" type="motorcycle">
		<route edges="208 210"/>
	</vehicle>
	<vehicle depart="0.1" departLane="0" departPos="1.25" departSpeed="5.7271938" id="339" type="motorcycle">
		<route edges="757 218 220"/>
	</vehicle>
	<vehicle depart="0.1" departLane="0" departPos="25.875724100633153" departSpeed="0.0" id="38" type="truck">
		<route edges="206 208"/>
	</vehicle>
	<vehicle depart="0.1" departLane="0" departPos="46.15386592356077" departSpeed="4.8416425" id="327" type="truck">
		<route edges="218 222"/>
	</vehicle>
</routes>
