<routes>
	<vehicle depart="0.1" departLane="0" departPos="0" departSpeed="4.4983" id="31" type="passenger">
		<route edges="8"/>
	</vehicle>
	<vehicle depart="0.1" departLane="1" departPos="226.2427488123092" departSpeed="12.3359" id="32" type="passenger">
		<route edges="8"/>
	</vehicle>
	<vehicle depart="0.1" departLane="1" departPos="0" departSpeed="4.4236" id="35" type="passenger">
		<route edges="8"/>
	</vehicle>
	<vehicle depart="0.1" departLane="0" departPos="0" departSpeed="4.5298" id="36" type="passenger">
		<route edges="8"/>
	</vehicle>
	<vehicle depart="0.1" departLane="1" departPos="202.3297134302203" departSpeed="21.0445" id="37" type="passenger">
		<route edges="5"/>
	</vehicle>
	<vehicle depart="0.1" departLane="0" departPos="226.23596410951797" departSpeed="14.9086" id="38" type="passenger">
		<route edges="5"/>
	</vehicle>
	<vehicle depart="0.1" departLane="0" departPos="0" departSpeed="4.5444" id="39" type="passenger">
		<route edges="8"/>
	</vehicle>
	<vehicle depart="0.1" departLane="1" departPos="0" departSpeed="4.4553" id="310" type="passenger">
		<route edges="8"/>
	</vehicle>
	<vehicle depart="0.1" departLane="1" departPos="0" departSpeed="4.872" id="311" type="passenger">
		<route edges="5 5"/>
	</vehicle>
	<vehicle depart="0.1" departLane="0" departPos="0" departSpeed="13.1193" id="312" type="passenger">
		<route edges="5"/>
	</vehicle>
	<vehicle depart="0.1" departLane="1" departPos="0" departSpeed="4.8006" id="314" type="passenger">
		<route edges="5 5"/>
	</vehicle>
	<vehicle depart="0.1" departLane="0" departPos="0" departSpeed="11.728" id="315" type="passenger">
		<route edges="5"/>
	</vehicle>
	<vehicle depart="0.1" departLane="1" departPos="0" departSpeed="3.2251" id="316" type="passenger">
		<route edges="8"/>
	</vehicle>
	<vehicle depart="0.1" departLane="0" departPos="0" departSpeed="4.249" id="317" type="passenger">
		<route edges="8"/>
	</vehicle>
	<vehicle depart="0.1" departLane="1" departPos="0" departSpeed="4.7843" id="318" type="passenger">
		<route edges="5 5"/>
	</vehicle>
	<vehicle depart="0.1" departLane="0" departPos="0" departSpeed="11.6053" id="319" type="passenger">
		<route edges="5"/>
	</vehicle>
	<vehicle depart="0.1" departLane="1" departPos="0" departSpeed="3.2267" id="320" type="passenger">
		<route edges="8"/>
	</vehicle>
	<vehicle depart="0.1" departLane="1" departPos="0" departSpeed="4.7035" id="321" type="passenger">
		<route edges="5"/>
	</vehicle>
	<vehicle depart="0.1" departLane="0" departPos="0" departSpeed="4.1807" id="322" type="passenger">
		<route edges="8"/>
	</vehicle>
	<vehicle depart="0.1" departLane="1" departPos="0" departSpeed="3.205" id="323" type="passenger">
		<route edges="8"/>
	</vehicle>
	<vehicle depart="0.1" departLane="0" departPos="0" departSpeed="3.7859" id="324" type="passenger">
		<route edges="8"/>
	</vehicle>
	<vehicle depart="0.1" departLane="1" departPos="0" departSpeed="2.582" id="325" type="passenger">
		<route edges="8"/>
	</vehicle>
</routes>
