<routes>
	<vehicle depart="0.1" departLane="0" departPos="36.82934496571095" departSpeed="0.0" id="315" type="bicycle">
		<route edges="296 460"/>
	</vehicle>
	<vehicle depart="0.1" departLane="0" departPos="59.334111383192024" departSpeed="11.45185" id="333" type="bus">
		<route edges="298 295"/>
	</vehicle>
	<vehicle depart="0.1" departLane="0" departPos="74.68033943900723" departSpeed="0.0" id="34" type="passenger">
		<route edges="299 76"/>
	</vehicle>
	<vehicle depart="0.1" departLane="0" departPos="67.17745168761518" departSpeed="0.0" id="35" type="passenger">
		<route edges="299 76"/>
	</vehicle>
	<vehicle depart="0.1" departLane="0" departPos="4.522463305418079" departSpeed="7.8061502" id="36" type="passenger">
		<route edges="298 295"/>
	</vehicle>
	<vehicle depart="0.1" departLane="0" departPos="60.69679192759316" departSpeed="3.053863" id="39" type="passenger">
		<route edges="79 76"/>
	</vehicle>
	<vehicle depart="0.1" departLane="0" departPos="51.30743051522114" departSpeed="2.3055074" id="311" type="passenger">
		<route edges="79 76"/>
	</vehicle>
	<vehicle depart="0.1" departLane="0" departPos="36.56660281104121" departSpeed="0.0" id="312" type="passenger">
		<route edges="459 295"/>
	</vehicle>
	<vehicle depart="0.1" departLane="0" departPos="35.805082284812144" departSpeed="0.0" id="317" type="passenger">
		<route edges="296 460"/>
	</vehicle>
	<vehicle depart="0.1" departLane="0" departPos="29.866846186233413" departSpeed="0.0" id="318" type="passenger">
		<route edges="459 295"/>
	</vehicle>
	<vehicle depart="0.1" departLane="0" departPos="22.789227884045722" departSpeed="0.0" id="319" type="passenger">
		<route edges="459 295"/>
	</vehicle>
	<vehicle depart="0.1" departLane="0" departPos="36.22199805538187" departSpeed="1.1436757" id="320" type="passenger">
		<route edges="79 76"/>
	</vehicle>
	<vehicle depart="0.1" departLane="0" departPos="28.654125599025267" departSpeed="0.0" id="321" type="passenger">
		<route edges="296 460"/>
	</vehicle>
	<vehicle depart="0.1" departLane="0" departPos="21.66117106358601" departSpeed="0.0" id="323" type="passenger">
		<route edges="296 460"/>
	</vehicle>
	<vehicle depart="0.1" departLane="0" departPos="15.335007841917312" departSpeed="0.0" id="325" type="passenger">
		<route edges="459 295"/>
	</vehicle>
	<vehicle depart="0.1" departLane="0" departPos="28.60642633894844" departSpeed="0.66014866" id="326" type="passenger">
		<route edges="79 76"/>
	</vehicle>
	<vehicle depart="0.1" departLane="0" departPos="14.796245763410262" departSpeed="2.7975501e-05" id="328" type="passenger">
		<route edges="296 460"/>
	</vehicle>
	<vehicle depart="0.1" departLane="0" departPos="7.875868229500649" departSpeed="1.8346609e-05" id="330" type="passenger">
		<route edges="459 295"/>
	</vehicle>
	<vehicle depart="0.1" departLane="0" departPos="21.201028425341324" departSpeed="0.36972012" id="331" type="passenger">
		<route edges="79 76"/>
	</vehicle>
	<vehicle depart="0.1" departLane="0" departPos="8.07449492848649" departSpeed="0.00020311837" id="332" type="passenger">
		<route edges="296 460"/>
	</vehicle>
	<vehicle depart="0.1" departLane="0" departPos="13.803769224957877" departSpeed="0.20165445" id="334" type="passenger">
		<route edges="79 76"/>
	</vehicle>
	<vehicle depart="0.1" departLane="0" departPos="35.09867188005083" departSpeed="10.756424" id="335" type="passenger">
		<route edges="298 295"/>
	</vehicle>
	<vehicle depart="0.1" departLane="0" departPos="6.338464759345393" departSpeed="0.1593904" id="336" type="passenger">
		<route edges="79 76"/>
	</vehicle>
	<vehicle depart="0.1" departLane="0" departPos="42.13262090326537" departSpeed="1.6645939" id="314" type="motorcycle">
		<route edges="79 76"/>
	</vehicle>
	<vehicle depart="0.1" departLane="0" departPos="11.366835991276671" departSpeed="8.7397859" id="327" type="motorcycle">
		<route edges="460"/>
	</vehicle>
	<vehicle depart="0.1" departLane="0" departPos="73.74997297116742" departSpeed="3.6799351" id="37" type="truck">
		<route edges="79 76"/>
	</vehicle>
	<vehicle depart="0.1" departLane="0" departPos="13.17621007192402" departSpeed="8.4267772" id="324" type="truck">
		<route edges="460"/>
	</vehicle>
</routes>
