<routes>
	<vehicle depart="0.1" departLane="0" departPos="23.692185471900146" departSpeed="14.31137" id="328" type="bus">
		<route edges="53311 53180 53201 53529"/>
	</vehicle>
	<vehicle depart="0.1" departLane="0" departPos="4.872756258622541" departSpeed="2.1738725" id="30" type="passenger">
		<route edges=":36_1 53236"/>
	</vehicle>
	<vehicle depart="0.1" departLane="0" departPos="18.77790907222886" departSpeed="0.70040831" id="32" type="passenger">
		<route edges="53310 53182"/>
	</vehicle>
	<vehicle depart="0.1" departLane="0" departPos="47.00675436147102" departSpeed="1.3397751" id="33" type="passenger">
		<route edges="53310 53182"/>
	</vehicle>
	<vehicle depart="0.1" departLane="0" departPos="39.50629310411381" departSpeed="0.98222023" id="34" type="passenger">
		<route edges="53310 53182"/>
	</vehicle>
	<vehicle depart="0.1" departLane="0" departPos="26.275701399825884" departSpeed="0.81319548" id="38" type="passenger">
		<route edges="53310 53182"/>
	</vehicle>
	<vehicle depart="0.1" departLane="0" departPos="10.715691731689512" departSpeed="1.3794728" id="316" type="passenger">
		<route edges="53310 53182"/>
	</vehicle>
	<vehicle depart="0.1" departLane="0" departPos="37.66305238382191" departSpeed="14.496942" id="331" type="passenger">
		<route edges=":36_5 53311 53180"/>
	</vehicle>
	<vehicle depart="0.1" departLane="0" departPos="31.24129001882777" departSpeed="0.87230395" id="35" type="motorcycle">
		<route edges="53310 53182"/>
	</vehicle>
	<vehicle depart="0.1" departLane="0" departPos="19.185340181738294" departSpeed="12.45263" id="332" type="motorcycle">
		<route edges=":36_5 53311 53180"/>
	</vehicle>
</routes>
