<!-- generated on Tue Feb  9 22:13:57 2021 by Eclipse SUMO netconvert Version 1.8.0
<configuration xmlns:xsi="http://www.w3.org/2001/XMLSchema-instance" xsi:noNamespaceSchemaLocation="http://sumo.dlr.de/xsd/netconvertConfiguration.xsd">

    <input>
        <node-files value="./converted_scenarios/scenario-factory/BEL_Putte-16_3_I-1-1/BEL_Putte-16_3_I-1-1.nod.xml"/>
        <edge-files value="./converted_scenarios/scenario-factory/BEL_Putte-16_3_I-1-1/BEL_Putte-16_3_I-1-1.edg.xml"/>
        <connection-files value="./converted_scenarios/scenario-factory/BEL_Putte-16_3_I-1-1/BEL_Putte-16_3_I-1-1.con.xml"/>
        <tllogic-files value="./converted_scenarios/scenario-factory/BEL_Putte-16_3_I-1-1/BEL_Putte-16_3_I-1-1.tll.xml"/>
        <type-files value="/home/zen/commonroad-interactive-benchmarks/install/commonroad-map-tool/crmapconverter/sumo_map/templates/DEU.typ.xml"/>
    </input>

    <output>
        <output-file value="./converted_scenarios/scenario-factory/BEL_Putte-16_3_I-1-1/BEL_Putte-16_3_I-1-1.net.xml"/>
    </output>

    <processing>
        <geometry.remove.keep-edges.explicit value="true"/>
        <geometry.avoid-overlap value="true"/>
        <offset.disable-normalization value="true"/>
    </processing>

    <junctions>
        <no-turnarounds value="true"/>
        <junctions.internal-link-detail value="20"/>
    </junctions>

    <report>
        <aggregate-warnings value="5"/>
    </report>

    <random_number>
        <seed value="1234"/>
    </random_number>

</configuration>
--><net xmlns:xsi="http://www.w3.org/2001/XMLSchema-instance" version="1.6" junctionCornerDetail="5" junctionLinkDetail="20" limitTurnSpeed="5.50" xsi:noNamespaceSchemaLocation="http://sumo.dlr.de/xsd/net_file.xsd">

    <location netOffset="0.00,0.00" convBoundary="515.58,420.55,703.33,615.48" origBoundary="515.58,420.55,703.33,615.48" projParameter="!"/>

    <type id="highway.bridleway" priority="1" speed="2.78" allow="pedestrian" oneway="1" width="2.00"/>
    <type id="highway.bus_guideway" priority="1" speed="27.78" allow="bus" oneway="1"/>
    <type id="highway.cycleway" priority="1" speed="8.33" allow="bicycle" oneway="0" width="1.00"/>
    <type id="highway.footway" priority="1" speed="2.78" allow="pedestrian" oneway="1" width="2.00"/>
    <type id="highway.ford" priority="1" speed="2.78" allow="army" oneway="0"/>
    <type id="highway.living_street" priority="2" speed="2.78" disallow="tram rail_urban rail rail_electric rail_fast ship" oneway="0"/>
    <type id="highway.motorway" priority="14" speed="39.44" allow="private emergency authority army vip passenger hov taxi bus coach delivery truck trailer motorcycle evehicle custom1 custom2" oneway="1"/>
    <type id="highway.motorway_link" priority="9" speed="22.22" allow="private emergency authority army vip passenger hov taxi bus coach delivery truck trailer motorcycle evehicle custom1 custom2" oneway="1"/>
    <type id="highway.path" priority="1" speed="2.78" allow="pedestrian bicycle" oneway="0" width="2.00"/>
    <type id="highway.pedestrian" priority="1" speed="2.78" allow="pedestrian" oneway="1" width="2.00"/>
    <type id="highway.primary" priority="12" speed="27.78" disallow="pedestrian tram rail_urban rail rail_electric rail_fast ship" oneway="0"/>
    <type id="highway.primary_link" priority="7" speed="22.22" disallow="pedestrian tram rail_urban rail rail_electric rail_fast ship" oneway="0"/>
    <type id="highway.raceway" priority="15" speed="83.33" allow="vip" oneway="0"/>
    <type id="highway.residential" priority="3" speed="13.89" disallow="pedestrian tram rail_urban rail rail_electric rail_fast ship" oneway="0"/>
    <type id="highway.secondary" priority="11" speed="27.78" disallow="pedestrian tram rail_urban rail rail_electric rail_fast ship" oneway="0"/>
    <type id="highway.secondary_link" priority="6" speed="22.22" disallow="pedestrian tram rail_urban rail rail_electric rail_fast ship" oneway="0"/>
    <type id="highway.service" priority="1" speed="5.56" allow="pedestrian delivery bicycle" oneway="0"/>
    <type id="highway.stairs" priority="1" speed="1.39" allow="pedestrian" oneway="1" width="2.00"/>
    <type id="highway.step" priority="1" speed="1.39" allow="pedestrian" oneway="1" width="2.00"/>
    <type id="highway.steps" priority="1" speed="1.39" allow="pedestrian" oneway="1" width="2.00"/>
    <type id="highway.tertiary" priority="10" speed="22.22" disallow="pedestrian tram rail_urban rail rail_electric rail_fast ship" oneway="0"/>
    <type id="highway.tertiary_link" priority="5" speed="22.22" disallow="pedestrian tram rail_urban rail rail_electric rail_fast ship" oneway="0"/>
    <type id="highway.track" priority="1" speed="5.56" allow="pedestrian motorcycle moped bicycle" oneway="0"/>
    <type id="highway.trunk" priority="13" speed="27.78" disallow="pedestrian bicycle tram rail_urban rail rail_electric rail_fast ship" oneway="0"/>
    <type id="highway.trunk_link" priority="8" speed="22.22" disallow="pedestrian bicycle tram rail_urban rail rail_electric rail_fast ship" oneway="0"/>
    <type id="highway.unclassified" priority="4" speed="13.89" disallow="pedestrian tram rail_urban rail rail_electric rail_fast ship" oneway="0"/>
    <type id="highway.unsurfaced" priority="1" speed="8.33" disallow="tram rail_urban rail rail_electric rail_fast ship" oneway="0"/>
    <type id="railway.highspeed" priority="21" speed="69.44" allow="rail_fast" oneway="1"/>
    <type id="railway.light_rail" priority="19" speed="27.78" allow="rail_urban" oneway="1"/>
    <type id="railway.preserved" priority="16" speed="27.78" allow="rail" oneway="1"/>
    <type id="railway.rail" priority="20" speed="44.44" allow="rail" oneway="1"/>
    <type id="railway.subway" priority="18" speed="27.78" allow="rail_urban" oneway="1"/>
    <type id="railway.tram" priority="17" speed="13.89" allow="tram" oneway="1"/>

    <edge id=":17_0" function="internal">
        <lane id=":17_0_0" index="0" disallow="pedestrian tram rail_urban rail rail_electric rail_fast ship" speed="17.77" length="52.28" width="3.50" shape="633.48,507.91 632.60,508.13 629.61,509.05 626.75,510.24 624.02,511.70 621.45,513.42 619.06,515.38 616.86,517.57 614.85,519.96 613.04,522.50 611.41,525.18 609.50,528.95 607.88,532.85 606.51,536.87 605.11,542.01 604.01,547.26"/>
    </edge>
    <edge id=":17_1" function="internal">
        <lane id=":17_1_0" index="0" disallow="pedestrian tram rail_urban rail rail_electric rail_fast ship" speed="36.11" length="56.68" width="3.50" shape="633.48,507.92 628.69,509.20 623.88,510.81 618.25,513.11 611.84,516.15 599.30,522.80 591.20,526.99 584.75,529.97 581.93,531.14"/>
    </edge>
    <edge id=":17_2" function="internal">
        <lane id=":17_2_0" index="0" disallow="pedestrian tram rail_urban rail rail_electric rail_fast ship" speed="36.11" length="57.72" width="3.50" shape="613.26,490.29 607.84,524.91 604.20,546.23 604.01,547.26"/>
    </edge>
    <edge id=":17_3" function="internal">
        <lane id=":17_3_0" index="0" disallow="pedestrian tram rail_urban rail rail_electric rail_fast ship" speed="19.71" length="54.17" width="3.50" shape="613.26,490.29 612.45,494.74 611.33,499.11 609.89,503.39 608.11,507.53 606.53,510.52 604.74,513.39 602.74,516.13 600.54,518.70 598.16,521.10 595.60,523.31 592.89,525.33 590.04,527.16 586.07,529.31 581.93,531.14"/>
    </edge>
    <edge id=":17_4" function="internal">
        <lane id=":17_4_0" index="0" disallow="pedestrian tram rail_urban rail rail_electric rail_fast ship" speed="19.05" length="50.53" width="3.50" shape="580.63,527.89 584.51,526.17 588.23,524.17 590.87,522.46 593.39,520.58 595.76,518.53 597.97,516.30 600.01,513.91 601.86,511.38 603.52,508.71 604.98,505.93 606.65,502.06 607.99,498.06 609.04,493.95 609.81,489.76"/>
    </edge>
    <edge id=":17_5" function="internal">
        <lane id=":17_5_0" index="0" disallow="pedestrian tram rail_urban rail rail_electric rail_fast ship" speed="36.11" length="57.32" width="3.50" shape="580.63,527.89 583.42,526.73 589.83,523.78 597.93,519.59 610.56,512.91 617.08,509.82 622.83,507.48 627.76,505.82 632.79,504.48"/>
    </edge>
    <edge id=":17_6" function="internal">
        <lane id=":17_6_0" index="0" disallow="pedestrian tram rail_urban rail rail_electric rail_fast ship" speed="11.41" length="42.70" width="3.50" shape="580.63,527.89 585.29,526.24 588.47,525.40 591.70,524.86 593.34,524.75 594.98,524.78 596.61,524.99 598.20,525.40 599.69,526.07 601.04,527.00 602.19,528.17 603.11,529.53 603.80,531.01 604.30,532.58 604.63,534.18 604.83,535.81 604.92,539.09 604.71,542.37 604.01,547.26"/>
    </edge>
    <edge id=":17_7" function="internal">
        <lane id=":17_7_0" index="0" disallow="pedestrian tram rail_urban rail rail_electric rail_fast ship" speed="10.32" length="34.67" width="3.50" shape="600.57,546.63 601.18,542.37 601.36,539.57 601.28,536.78 601.12,535.47 600.86,534.18 600.47,532.97 599.96,531.86 599.31,530.88 598.51,530.05 597.56,529.41 596.49,528.93 595.31,528.62 594.06,528.47 592.75,528.45 591.44,528.53 588.69,528.98 585.99,529.70 581.93,531.14"/>
    </edge>
    <edge id=":17_8" function="internal">
        <lane id=":17_8_0" index="0" disallow="pedestrian tram rail_urban rail rail_electric rail_fast ship" speed="36.11" length="57.62" width="3.50" shape="600.57,546.63 600.75,545.61 604.39,524.33 609.81,489.76"/>
    </edge>
    <edge id=":17_9" function="internal">
        <lane id=":17_9_0" index="0" disallow="pedestrian tram rail_urban rail rail_electric rail_fast ship" speed="18.46" length="56.46" width="3.50" shape="600.57,546.63 601.73,541.09 603.23,535.64 604.69,531.37 606.44,527.21 608.50,523.19 610.28,520.31 612.26,517.56 614.46,514.99 616.88,512.62 619.51,510.48 622.34,508.62 625.33,507.03 628.46,505.75 631.70,504.75 632.79,504.48"/>
    </edge>

    <edge id="13268" from="17" to="9" priority="3" type="highway.residential" spreadType="center" length="69.99" shape="608.79,518.50 588.50,615.48">
        <lane id="13268_0" index="0" disallow="pedestrian tram rail_urban rail rail_electric rail_fast ship" speed="36.11" length="69.99" width="3.50" customShape="1" shape="604.01,547.26 599.70,570.03 597.07,582.35 593.09,598.51 588.50,615.48"/>
    </edge>
    <edge id="13269" from="13" to="17" priority="3" type="highway.residential" spreadType="center" length="70.02" shape="585.05,614.85 605.37,517.78">
        <lane id="13269_0" index="0" disallow="pedestrian tram rail_urban rail rail_electric rail_fast ship" speed="36.11" length="70.02" width="3.50" customShape="1" shape="585.05,614.85 589.71,597.57 593.67,581.52 596.28,569.29 600.57,546.61"/>
    </edge>
    <edge id="13271" from="15" to="17" priority="3" type="highway.residential" spreadType="center" length="70.00" shape="623.77,421.10 608.80,518.46">
        <lane id="13271_0" index="0" disallow="pedestrian tram rail_urban rail rail_electric rail_fast ship" speed="36.11" length="70.00" width="3.50" customShape="1" shape="623.77,421.10 623.66,422.12 621.42,438.58 617.44,463.44 613.26,490.30"/>
    </edge>
    <edge id="13272" from="17" to="12" priority="3" type="highway.residential" spreadType="center" length="70.01" shape="605.34,517.93 620.31,420.55">
        <lane id="13272_0" index="0" disallow="pedestrian tram rail_urban rail rail_electric rail_fast ship" speed="36.11" length="70.01" width="3.50" customShape="1" shape="609.81,489.76 613.98,462.96 617.94,438.17 620.18,421.79 620.31,420.55"/>
    </edge>
    <edge id="13357" from="17" to="6" priority="3" type="highway.residential" spreadType="center" length="70.00" shape="607.76,519.77 516.88,557.00">
        <lane id="13357_0" index="0" disallow="pedestrian tram rail_urban rail rail_electric rail_fast ship" speed="36.11" length="70.00" width="3.50" customShape="1" shape="581.93,531.14 519.37,556.01 516.88,557.00"/>
    </edge>
    <edge id="13358" from="14" to="17" priority="3" type="highway.residential" spreadType="center" length="70.00" shape="515.58,553.75 606.44,516.54">
        <lane id="13358_0" index="0" disallow="pedestrian tram rail_urban rail rail_electric rail_fast ship" speed="36.11" length="70.00" width="3.50" customShape="1" shape="515.58,553.75 518.08,552.75 580.63,527.89"/>
    </edge>
    <edge id="13386" from="16" to="17" priority="3" type="highway.residential" spreadType="center" length="70.11" shape="703.33,503.47 607.34,519.90">
        <lane id="13386_0" index="0" disallow="pedestrian tram rail_urban rail rail_electric rail_fast ship" speed="36.11" length="70.11" width="3.50" customShape="1" shape="703.33,503.47 695.81,503.89 681.71,504.18 664.58,504.43 655.01,504.88 646.99,505.61 640.00,506.60 633.48,507.91"/>
    </edge>
    <edge id="13387" from="17" to="3" priority="3" type="highway.residential" spreadType="center" length="70.00" shape="606.74,516.45 702.53,500.02">
        <lane id="13387_0" index="0" disallow="pedestrian tram rail_urban rail rail_electric rail_fast ship" speed="36.11" length="70.00" width="3.50" customShape="1" shape="632.79,504.48 639.30,503.17 646.37,502.16 654.46,501.41 664.08,500.95 681.20,500.68 695.25,500.41 702.53,500.02"/>
    </edge>

    <junction id="12" type="dead_end" x="620.31" y="420.55" incLanes="13272_0" intLanes="" shape="618.57,420.37 622.05,420.74" rightOfWay="edgePriority"/>
    <junction id="13" type="dead_end" x="585.05" y="614.85" incLanes="" intLanes="" shape="586.74,615.31 583.36,614.40" rightOfWay="edgePriority"/>
    <junction id="14" type="dead_end" x="515.58" y="553.75" incLanes="" intLanes="" shape="516.23,555.37 514.93,552.12" rightOfWay="edgePriority"/>
    <junction id="15" type="dead_end" x="623.77" y="421.10" incLanes="" intLanes="" shape="622.03,420.92 625.51,421.28" rightOfWay="edgePriority"/>
    <junction id="16" type="dead_end" x="703.33" y="503.47" incLanes="" intLanes="" shape="703.23,501.73 703.43,505.22" rightOfWay="edgePriority"/>
    <junction id="17" type="priority" x="607.07" y="518.17" incLanes="13386_0 13271_0 13358_0 13269_0" intLanes=":17_0_0 :17_1_0 :17_2_0 :17_3_0 :17_4_0 :17_5_0 :17_6_0 :17_7_0 :17_8_0 :17_9_0" shape="633.82,509.62 632.44,502.76 627.00,503.48 622.36,503.23 618.69,501.92 616.13,499.44 614.85,495.69 614.99,490.56 608.08,489.49 606.12,498.09 603.07,505.70 598.93,512.33 593.70,517.96 587.39,522.61 579.99,526.26 582.57,532.76 587.72,531.46 592.13,531.77 595.63,533.56 598.03,536.68 599.16,540.97 598.85,546.28 605.73,547.58 608.27,537.19 611.67,528.43 615.93,521.29 621.04,515.78 627.00,511.89">
        <request index="0" response="0000000100" foes="0001000100" cont="0"/>
        <request index="1" response="1110001100" foes="1111001100" cont="0"/>
        <request index="2" response="0000000000" foes="1001100011" cont="0"/>
        <request index="3" response="0110000000" foes="0111100010" cont="0"/>
        <request index="4" response="0100000000" foes="0100000000" cont="0"/>
        <request index="5" response="1100001100" foes="1100001100" cont="0"/>
        <request index="6" response="1100001111" foes="1100001111" cont="0"/>
        <request index="7" response="0000000000" foes="0000001010" cont="0"/>
        <request index="8" response="0000000000" foes="0001111010" cont="0"/>
        <request index="9" response="0000000100" foes="0001100110" cont="0"/>
    </junction>
    <junction id="3" type="dead_end" x="702.53" y="500.02" incLanes="13387_0" intLanes="" shape="702.43,498.27 702.62,501.76" rightOfWay="edgePriority"/>
    <junction id="6" type="dead_end" x="516.88" y="557.00" incLanes="13357_0" intLanes="" shape="517.52,558.63 516.23,555.37" rightOfWay="edgePriority"/>
    <junction id="9" type="dead_end" x="588.50" y="615.48" incLanes="13268_0" intLanes="" shape="590.19,615.94 586.82,615.03" rightOfWay="edgePriority"/>

    <connection from="13269" to="13357" fromLane="0" toLane="0" contPos="-4.00" shape="600.57,546.63 601.18,542.37 601.36,539.57 601.28,536.78 601.12,535.47 600.86,534.18 600.47,532.97 599.96,531.86 599.31,530.88 598.51,530.05 597.56,529.41 596.49,528.93 595.31,528.62 594.06,528.47 592.75,528.45 591.44,528.53 588.69,528.98 585.99,529.70 581.93,531.14" via=":17_7_0" dir="r" state="M"/>
    <connection from="13269" to="13272" fromLane="0" toLane="0" contPos="-4.00" shape="600.57,546.63 600.75,545.61 604.39,524.33 609.81,489.76" via=":17_8_0" dir="s" state="M"/>
    <connection from="13269" to="13387" fromLane="0" toLane="0" contPos="-4.00" shape="600.57,546.63 601.73,541.09 603.23,535.64 604.69,531.37 606.44,527.21 608.50,523.19 610.28,520.31 612.26,517.56 614.46,514.99 616.88,512.62 619.51,510.48 622.34,508.62 625.33,507.03 628.46,505.75 631.70,504.75 632.79,504.48" via=":17_9_0" dir="l" state="m"/>
    <connection from="13271" to="13268" fromLane="0" toLane="0" contPos="-4.00" shape="613.26,490.30 607.84,524.91 604.20,546.23 604.01,547.26" via=":17_2_0" dir="s" state="M"/>
    <connection from="13271" to="13357" fromLane="0" toLane="0" contPos="-4.00" shape="613.26,490.30 612.45,494.74 611.33,499.11 609.89,503.39 608.11,507.53 606.53,510.52 604.74,513.39 602.74,516.13 600.54,518.70 598.16,521.10 595.60,523.31 592.89,525.33 590.04,527.16 586.07,529.31 581.93,531.14" via=":17_3_0" dir="l" state="m"/>
    <connection from="13358" to="13272" fromLane="0" toLane="0" contPos="-4.00" shape="580.63,527.89 584.51,526.17 588.23,524.17 590.87,522.46 593.39,520.58 595.76,518.53 597.97,516.30 600.01,513.91 601.86,511.38 603.52,508.71 604.98,505.93 606.65,502.06 607.99,498.06 609.04,493.95 609.81,489.76" via=":17_4_0" dir="r" state="m"/>
    <connection from="13358" to="13387" fromLane="0" toLane="0" contPos="-4.00" shape="580.63,527.89 583.42,526.73 589.83,523.78 597.93,519.59 610.56,512.91 617.08,509.82 622.83,507.48 627.76,505.82 632.79,504.48" via=":17_5_0" dir="s" state="m"/>
    <connection from="13358" to="13268" fromLane="0" toLane="0" contPos="-4.00" shape="580.63,527.89 585.29,526.24 588.47,525.40 591.70,524.86 593.34,524.75 594.98,524.78 596.61,524.99 598.20,525.40 599.69,526.07 601.04,527.00 602.19,528.17 603.11,529.53 603.80,531.01 604.30,532.58 604.63,534.18 604.83,535.81 604.92,539.09 604.71,542.37 604.01,547.26" via=":17_6_0" dir="l" state="m"/>
    <connection from="13386" to="13268" fromLane="0" toLane="0" contPos="-4.00" shape="633.59,507.89 632.60,508.13 629.61,509.05 626.75,510.24 624.02,511.70 621.45,513.42 619.06,515.38 616.86,517.57 614.85,519.96 613.04,522.50 611.41,525.18 609.50,528.95 607.88,532.85 606.51,536.87 605.11,542.01 604.01,547.26" via=":17_0_0" dir="r" state="m"/>
    <connection from="13386" to="13357" fromLane="0" toLane="0" contPos="-4.00" shape="633.59,507.89 628.69,509.20 623.88,510.81 618.25,513.11 611.84,516.15 599.30,522.80 591.20,526.99 584.75,529.97 581.93,531.14" via=":17_1_0" dir="s" state="m"/>

    <connection from=":17_0" to="13268" fromLane="0" toLane="0" dir="r" state="M"/>
    <connection from=":17_1" to="13357" fromLane="0" toLane="0" dir="s" state="M"/>
    <connection from=":17_2" to="13268" fromLane="0" toLane="0" dir="s" state="M"/>
    <connection from=":17_3" to="13357" fromLane="0" toLane="0" dir="l" state="M"/>
    <connection from=":17_4" to="13272" fromLane="0" toLane="0" dir="r" state="M"/>
    <connection from=":17_5" to="13387" fromLane="0" toLane="0" dir="s" state="M"/>
    <connection from=":17_6" to="13268" fromLane="0" toLane="0" dir="l" state="M"/>
    <connection from=":17_7" to="13357" fromLane="0" toLane="0" dir="r" state="M"/>
    <connection from=":17_8" to="13272" fromLane="0" toLane="0" dir="s" state="M"/>
    <connection from=":17_9" to="13387" fromLane="0" toLane="0" dir="l" state="M"/>

</net>