<routes>
	<vehicle depart="0.1" departLane="0" departPos="20.67761893580175" departSpeed="10.106991" id="38" type="bicycle">
		<route edges="13268"/>
	</vehicle>
	<vehicle depart="0.1" departLane="0" departPos="11.236812364455389" departSpeed="0.20884765" id="36" type="passenger">
		<route edges=":17_7 13357"/>
	</vehicle>
	<vehicle depart="0.1" departLane="0" departPos="58.7103471795496" departSpeed="2.8032345" id="39" type="passenger">
		<route edges="13358 13272"/>
	</vehicle>
	<vehicle depart="0.1" departLane="0" departPos="55.7191044922923" departSpeed="0.4233511" id="310" type="passenger">
		<route edges="13269 13357"/>
	</vehicle>
	<vehicle depart="0.1" departLane="0" departPos="48.41400522801409" departSpeed="2.2519508" id="311" type="passenger">
		<route edges="13269 13357"/>
	</vehicle>
	<vehicle depart="0.1" departLane="0" departPos="2.5" departSpeed="13.252928" id="319" type="passenger">
		<route edges="13357"/>
	</vehicle>
	<vehicle depart="0.1" departLane="0" departPos="25.006981907115353" departSpeed="10.801102" id="323" type="passenger">
		<route edges=":17_2 13268"/>
	</vehicle>
	<vehicle depart="0.1" departLane="0" departPos="53.68260129938707" departSpeed="12.483247" id="331" type="passenger">
		<route edges="13271 13268"/>
	</vehicle>
	<vehicle depart="0.1" departLane="0" departPos="8.039127999213424" departSpeed="8.7059448" id="333" type="passenger">
		<route edges=":17_3 13357"/>
	</vehicle>
	<vehicle depart="0.1" departLane="0" departPos="23.28109633611328" departSpeed="0.247378" id="30" type="truck">
		<route edges=":17_7 13357"/>
	</vehicle>
</routes>
