<!-- generated on 2020-12-18 16:19:17.861306 by ipykernel_launcher.py v1_2_0+5214-53edc58fcd
-->
<connections>
	<connection contPos="-4.0" from="621" fromLane="1" keepClear="true" to="628" toLane="0"/>
	<connection contPos="-4.0" from="621" fromLane="1" keepClear="true" to="626" toLane="0"/>
	<connection contPos="-4.0" from="621" fromLane="1" keepClear="true" to="631" toLane="1"/>
	<connection contPos="-4.0" from="621" fromLane="0" keepClear="true" to="631" toLane="0"/>
	<connection contPos="-4.0" from="622" fromLane="0" keepClear="true" to="630" toLane="0"/>
	<connection contPos="-4.0" from="622" fromLane="1" keepClear="true" to="630" toLane="1"/>
	<connection contPos="-4.0" from="626" fromLane="0" keepClear="true" to="625" toLane="0"/>
	<connection contPos="-4.0" from="630" fromLane="1" keepClear="true" to="619" toLane="1"/>
	<connection contPos="-4.0" from="628" fromLane="0" keepClear="true" to="625" toLane="1"/>
	<connection contPos="-4.0" from="631" fromLane="1" keepClear="true" to="619" toLane="1"/>
	<connection contPos="-4.0" from="630" fromLane="0" keepClear="true" to="619" toLane="0"/>
	<connection contPos="-4.0" from="631" fromLane="0" keepClear="true" to="619" toLane="0"/>
</connections>
