<routes>
	<vehicle depart="0.1" departLane="1" departPos="0" departSpeed="7.26" id="31" type="passenger">
		<route edges="625"/>
	</vehicle>
	<vehicle depart="0.1" departLane="0" departPos="0" departSpeed="6.89" id="32" type="passenger">
		<route edges="619"/>
	</vehicle>
	<vehicle depart="0.1" departLane="0" departPos="0" departSpeed="6.83" id="33" type="passenger">
		<route edges="619"/>
	</vehicle>
	<vehicle depart="0.1" departLane="1" departPos="0" departSpeed="7.33" id="34" type="passenger">
		<route edges="625"/>
	</vehicle>
	<vehicle depart="0.1" departLane="0" departPos="0" departSpeed="7.21" id="36" type="passenger">
		<route edges="628 625"/>
	</vehicle>
	<vehicle depart="0.1" departLane="0" departPos="0" departSpeed="6.81" id="37" type="passenger">
		<route edges="619"/>
	</vehicle>
	<vehicle depart="0.1" departLane="0" departPos="0" departSpeed="6.67" id="39" type="passenger">
		<route edges="631 619"/>
	</vehicle>
	<vehicle depart="0.1" departLane="1" departPos="49.400765457447015" departSpeed="8.55" id="311" type="passenger">
		<route edges="619"/>
	</vehicle>
	<vehicle depart="0.1" departLane="0" departPos="43.50071845083315" departSpeed="6.85" id="312" type="passenger">
		<route edges="619"/>
	</vehicle>
	<vehicle depart="0.1" departLane="1" departPos="0" departSpeed="8.36" id="313" type="passenger">
		<route edges="619"/>
	</vehicle>
	<vehicle depart="0.1" departLane="0" departPos="48.702172436331985" departSpeed="6.52" id="314" type="passenger">
		<route edges="621 631 619"/>
	</vehicle>
	<vehicle depart="0.1" departLane="1" departPos="39.00170831372809" departSpeed="6.95" id="315" type="passenger">
		<route edges="621 626 628 625"/>
	</vehicle>
	<vehicle depart="0.1" departLane="0" departPos="25.401086607382375" departSpeed="6.11" id="316" type="passenger">
		<route edges="621 631 619"/>
	</vehicle>
	<vehicle depart="0.1" departLane="0" departPos="0" departSpeed="5.22" id="318" type="passenger">
		<route edges="621 631 619"/>
	</vehicle>
	<vehicle depart="0.1" departLane="1" departPos="0" departSpeed="3.33" id="320" type="passenger">
		<route edges="621 626 628 625"/>
	</vehicle>
	<vehicle depart="0.1" departLane="0" departPos="0" departSpeed="3.04" id="321" type="passenger">
		<route edges="621 631 619"/>
	</vehicle>
</routes>
