<?xml version="1.0" encoding="UTF-8"?>

<!-- generated on Fri Dec 18 16:19:17 2020 by Eclipse SUMO netconvert Version 1.8.0
<configuration xmlns:xsi="http://www.w3.org/2001/XMLSchema-instance" xsi:noNamespaceSchemaLocation="http://sumo.dlr.de/xsd/netconvertConfiguration.xsd">

    <input>
        <node-files value="./converted_scenarios/SUMO/DEU_Muc-17_2_I-1-1/nodes.net.xml"/>
        <edge-files value="./converted_scenarios/SUMO/DEU_Muc-17_2_I-1-1/edges.net.xml"/>
        <connection-files value="./converted_scenarios/SUMO/DEU_Muc-17_2_I-1-1/_connections.net.xml"/>
        <tllogic-files value="./converted_scenarios/SUMO/DEU_Muc-17_2_I-1-1/_tll.net.xml"/>
    </input>

    <output>
        <output-file value="./converted_scenarios/SUMO/DEU_Muc-17_2_I-1-1/DEU_Muc-17_2_I-1-1.net.xml"/>
    </output>

    <processing>
        <plain.extend-edge-shape value="true"/>
        <geometry.remove.keep-edges.explicit value="true"/>
        <geometry.avoid-overlap value="true"/>
        <offset.disable-normalization value="true"/>
    </processing>

    <junctions>
        <no-turnarounds value="true"/>
        <junctions.internal-link-detail value="20"/>
    </junctions>

    <report>
        <aggregate-warnings value="5"/>
    </report>

    <random_number>
        <seed value="1234"/>
    </random_number>

</configuration>
-->

<net version="1.6" junctionCornerDetail="5" junctionLinkDetail="20" limitTurnSpeed="5.50" xmlns:xsi="http://www.w3.org/2001/XMLSchema-instance" xsi:noNamespaceSchemaLocation="http://sumo.dlr.de/xsd/net_file.xsd">

    <location netOffset="0.00,0.00" convBoundary="686376.90,5334894.00,686506.30,5335031.00" origBoundary="686376.87,5334894.00,686507.56,5335031.00" projParameter="!"/>

    <edge id=":1_0" function="internal">
        <lane id=":1_0_0" index="0" disallow="rail_fast" speed="36.11" length="10.22" width="2.50" shape="686507.09,5334951.21 686507.07,5334961.43"/>
        <lane id=":1_0_1" index="1" disallow="rail_fast" speed="36.11" length="10.22" width="2.50" shape="686504.58,5334951.21 686504.57,5334961.43"/>
    </edge>
    <edge id=":1_2" function="internal">
        <lane id=":1_2_0" index="0" disallow="bus truck rail_fast" speed="9.06" length="14.63" width="2.50" shape="686500.62,5334948.84 686501.28,5334949.02 686501.90,5334949.26 686502.48,5334949.56 686503.03,5334949.90 686503.55,5334950.30 686504.03,5334950.75 686504.47,5334951.25 686504.88,5334951.81 686505.26,5334952.42 686505.60,5334953.08 686505.90,5334953.80 686506.17,5334954.57 686506.40,5334955.39 686506.60,5334956.26 686506.77,5334957.19 686506.90,5334958.17 686506.99,5334959.20 686507.05,5334960.29 686507.07,5334961.43"/>
        <lane id=":1_2_1" index="1" disallow="bus truck rail_fast" speed="8.30" length="14.63" width="2.50" shape="686497.71,5334950.87 686498.41,5334950.99 686499.07,5334951.16 686499.69,5334951.37 686500.28,5334951.64 686500.83,5334951.95 686501.34,5334952.31 686501.81,5334952.72 686502.25,5334953.18 686502.64,5334953.69 686503.00,5334954.24 686503.33,5334954.85 686503.61,5334955.50 686503.86,5334956.20 686504.07,5334956.95 686504.25,5334957.75 686504.38,5334958.60 686504.48,5334959.49 686504.54,5334960.44 686504.57,5334961.43"/>
    </edge>
    <edge id=":4_0" function="internal">
        <lane id=":4_0_0" index="0" disallow="rail_fast" speed="36.11" length="7.33" width="2.50" shape="686507.09,5334943.70 686507.09,5334951.01"/>
        <lane id=":4_0_1" index="1" disallow="rail_fast" speed="36.11" length="7.33" width="2.50" shape="686504.58,5334943.67 686504.58,5334951.01"/>
    </edge>
    <edge id=":4_2" function="internal">
        <lane id=":4_2_0" index="0" disallow="bus truck rail_fast" speed="9.24" length="13.51" width="2.44" shape="686504.58,5334943.67 686504.56,5334944.64 686504.51,5334945.57 686504.43,5334946.46 686504.32,5334947.31 686504.18,5334948.13 686504.02,5334948.90 686503.82,5334949.63 686503.60,5334950.32 686503.35,5334950.97 686503.08,5334951.58 686502.77,5334952.15 686502.43,5334952.68 686502.07,5334953.17 686501.68,5334953.62 686501.26,5334954.02 686500.81,5334954.39 686500.34,5334954.72 686499.84,5334955.01 686499.30,5334955.25"/>
    </edge>
    <edge id=":4_3" function="internal">
        <lane id=":4_3_0" index="0" disallow="bus truck rail_fast" speed="8.56" length="13.16" width="2.47" shape="686504.58,5334943.67 686504.55,5334944.47 686504.49,5334945.23 686504.38,5334945.97 686504.24,5334946.67 686504.05,5334947.35 686503.83,5334947.99 686503.57,5334948.59 686503.26,5334949.17 686502.92,5334949.71 686502.54,5334950.22 686502.12,5334950.70 686501.66,5334951.14 686501.17,5334951.56 686500.63,5334951.94 686500.05,5334952.28 686499.44,5334952.60 686498.78,5334952.88 686498.09,5334953.14 686497.35,5334953.36"/>
    </edge>
    <edge id=":6_0" function="internal">
        <lane id=":6_0_0" index="0" disallow="bus truck rail_fast" speed="36.11" length="3.87" width="2.41" shape="686494.36,5334948.54 686494.65,5334948.52 686494.91,5334948.50 686495.14,5334948.47 686495.36,5334948.45 686495.55,5334948.43 686495.73,5334948.40 686495.90,5334948.38 686496.06,5334948.37 686496.21,5334948.35 686496.36,5334948.34 686496.52,5334948.33 686496.68,5334948.32 686496.85,5334948.32 686497.02,5334948.32 686497.22,5334948.32 686497.43,5334948.33 686497.67,5334948.35 686497.92,5334948.37 686498.21,5334948.40"/>
    </edge>
    <edge id=":6_1" function="internal">
        <lane id=":6_1_0" index="0" disallow="bus truck rail_fast" speed="36.11" length="3.00" width="2.46" shape="686494.53,5334950.99 686494.76,5334950.97 686494.96,5334950.95 686495.14,5334950.93 686495.30,5334950.91 686495.46,5334950.89 686495.59,5334950.87 686495.73,5334950.85 686495.85,5334950.83 686495.97,5334950.81 686496.09,5334950.80 686496.21,5334950.78 686496.33,5334950.78 686496.46,5334950.77 686496.60,5334950.77 686496.75,5334950.77 686496.91,5334950.78 686497.09,5334950.80 686497.29,5334950.82 686497.52,5334950.85"/>
    </edge>
    <edge id=":7_0" function="internal">
        <lane id=":7_0_0" index="0" disallow="bus truck rail_fast" speed="36.11" length="3.03" width="2.50" shape="686498.35,5334955.62 686495.34,5334955.96"/>
    </edge>
    <edge id=":7_1" function="internal">
        <lane id=":7_1_0" index="0" disallow="bus truck rail_fast" speed="36.11" length="2.05" width="2.50" shape="686497.16,5334953.41 686497.01,5334953.44 686496.88,5334953.47 686496.76,5334953.49 686496.65,5334953.51 686496.55,5334953.52 686496.45,5334953.52 686496.37,5334953.52 686496.28,5334953.52 686496.20,5334953.51 686496.12,5334953.50 686496.03,5334953.49 686495.95,5334953.48 686495.86,5334953.47 686495.76,5334953.46 686495.66,5334953.45 686495.54,5334953.45 686495.42,5334953.45 686495.28,5334953.45 686495.13,5334953.46"/>
    </edge>

    <edge id="619" from="1" to="2" priority="1" spreadType="center" length="70.30">
        <lane id="619_0" index="0" disallow="rail_fast" speed="36.11" length="70.30" width="2.50" customShape="1" shape="686507.07,5334961.43 686507.27,5334995.90 686507.46,5335031.00"/>
        <lane id="619_1" index="1" disallow="rail_fast" speed="36.11" length="70.30" width="2.50" customShape="1" shape="686504.57,5334961.43 686504.76,5334995.90 686504.96,5335031.01"/>
    </edge>
    <edge id="621" from="3" to="4" priority="1" spreadType="center" length="48.65">
        <lane id="621_0" index="0" disallow="rail_fast" speed="36.11" length="48.65" width="2.51" customShape="1" shape="686507.56,5334894.00 686507.32,5334918.35 686507.09,5334943.70"/>
        <lane id="621_1" index="1" disallow="rail_fast" speed="36.11" length="48.65" width="2.50" customShape="1" shape="686505.05,5334893.99 686504.81,5334918.30 686504.58,5334943.67"/>
    </edge>
    <edge id="622" from="5" to="6" priority="1" spreadType="center" length="119.56">
        <lane id="622_0" index="0" disallow="bus truck rail_fast" speed="36.11" length="119.56" width="2.41" customShape="1" shape="686376.87,5334954.15 686416.54,5334953.45 686433.10,5334952.85 686453.16,5334951.65 686494.36,5334948.54"/>
        <lane id="622_1" index="1" disallow="bus truck rail_fast" speed="36.11" length="119.56" width="2.50" customShape="1" shape="686376.92,5334956.65 686416.64,5334955.95 686433.24,5334955.35 686453.32,5334954.15 686494.53,5334950.99"/>
    </edge>
    <edge id="625" from="7" to="8" priority="1" spreadType="center" length="119.78">
        <lane id="625_0" index="0" disallow="bus truck rail_fast" speed="36.11" length="119.78" width="2.50" acceleration="1" customShape="1" shape="686495.34,5334955.96 686453.58,5334959.15 686433.45,5334960.35 686416.81,5334960.95 686377.02,5334961.65"/>
        <lane id="625_1" index="1" disallow="bus truck rail_fast" speed="36.11" length="119.78" width="2.50" customShape="1" shape="686495.13,5334953.46 686453.45,5334956.65 686433.34,5334957.85 686416.72,5334958.45 686376.97,5334959.15"/>
    </edge>
    <edge id="626" from="4" to="7" priority="1" spreadType="center" length="17.02">
        <lane id="626_0" index="0" disallow="bus truck rail_fast" speed="36.11" length="17.02" width="2.44" customShape="1" shape="686499.30,5334955.25 686498.47,5334955.60 686498.35,5334955.62"/>
    </edge>
    <edge id="628" from="4" to="7" priority="1" spreadType="center" length="15.04">
        <lane id="628_0" index="0" disallow="bus truck rail_fast" speed="36.11" length="15.04" width="2.47" customShape="1" shape="686497.35,5334953.36 686497.16,5334953.41"/>
    </edge>
    <edge id="630" from="6" to="1" priority="1" spreadType="center" length="14.77">
        <lane id="630_0" index="0" disallow="bus truck rail_fast" speed="36.11" length="14.77" width="2.41" customShape="1" shape="686498.21,5334948.40 686499.20,5334948.50 686500.62,5334948.84"/>
        <lane id="630_1" index="1" disallow="bus truck rail_fast" speed="36.11" length="14.77" width="2.46" customShape="1" shape="686497.52,5334950.85 686497.71,5334950.87"/>
    </edge>
    <edge id="631" from="4" to="1" priority="1" spreadType="center" length="18.00">
        <lane id="631_0" index="0" disallow="rail_fast" speed="36.11" length="18.00" width="2.50" customShape="1" shape="686507.09,5334951.01 686507.09,5334951.21"/>
        <lane id="631_1" index="1" disallow="rail_fast" speed="36.11" length="18.00" width="2.50" customShape="1" shape="686504.58,5334951.01 686504.58,5334951.21"/>
    </edge>

    <junction id="1" type="priority" x="686505.82" y="5334960.70" incLanes="631_0 631_1 630_0 630_1" intLanes=":1_0_0 :1_0_1 :1_2_0 :1_2_1" shape="686503.32,5334961.44 686508.32,5334961.42 686508.34,5334947.33 686503.33,5334947.33 686503.18,5334948.01 686503.00,5334948.19 686502.75,5334948.27 686502.42,5334948.24 686502.02,5334948.11 686494.40,5334952.08">
        <request index="0" response="0000" foes="1100" cont="0"/>
        <request index="1" response="0000" foes="1100" cont="0"/>
        <request index="2" response="0011" foes="0011" cont="0"/>
        <request index="3" response="0011" foes="0011" cont="0"/>
    </junction>
    <junction id="2" type="dead_end" x="686506.21" y="5335031.00" incLanes="619_0 619_1" intLanes="" shape="686508.71,5335030.99 686503.71,5335031.01"/>
    <junction id="3" type="dead_end" x="686506.30" y="5334894.00" incLanes="" intLanes="" shape="686503.79,5334893.98 686508.81,5334894.02"/>
    <junction id="4" type="priority" x="686505.84" y="5334942.68" incLanes="621_0 621_1" intLanes=":4_0_0 :4_0_1 :4_2_0 :4_3_0" shape="686503.32,5334954.89 686508.33,5334954.90 686508.34,5334943.71 686503.33,5334943.65 686496.05,5334952.43 686496.70,5334954.81 686499.35,5334953.99 686499.25,5334956.60">
        <request index="0" response="0000" foes="0000" cont="0"/>
        <request index="1" response="0000" foes="0000" cont="0"/>
        <request index="2" response="0000" foes="0000" cont="0"/>
        <request index="3" response="0000" foes="0000" cont="0"/>
    </junction>
    <junction id="5" type="dead_end" x="686376.90" y="5334955.40" incLanes="" intLanes="" shape="686376.94,5334957.90 686376.85,5334952.95"/>
    <junction id="6" type="priority" x="686496.33" y="5334949.62" incLanes="622_0 622_1" intLanes=":6_0_0 :6_1_0" shape="686498.36,5334952.20 686498.16,5334947.18 686496.73,5334947.11 686496.22,5334947.13 686495.72,5334947.19 686495.10,5334947.27 686494.28,5334947.34 686494.62,5334952.24 686496.01,5334952.11 686496.49,5334952.07 686496.98,5334952.07 686497.57,5334952.11">
        <request index="0" response="00" foes="00" cont="0"/>
        <request index="1" response="00" foes="00" cont="0"/>
    </junction>
    <junction id="7" type="priority" x="686496.69" y="5334954.60" incLanes="626_0 628_0" intLanes=":7_0_0 :7_1_0" shape="686498.46,5334956.84 686498.03,5334951.89 686496.94,5334952.13 686496.54,5334952.16 686495.67,5334952.18 686495.02,5334952.21 686495.45,5334957.21">
        <request index="0" response="00" foes="00" cont="0"/>
        <request index="1" response="00" foes="00" cont="0"/>
    </junction>
    <junction id="8" type="dead_end" x="686377.00" y="5334960.40" incLanes="625_0 625_1" intLanes="" shape="686377.05,5334962.90 686376.96,5334957.90"/>

    <connection from="621" to="631" fromLane="0" toLane="0" contPos="-4.00" via=":4_0_0" dir="s" state="M"/>
    <connection from="621" to="631" fromLane="1" toLane="1" contPos="-4.00" via=":4_0_1" dir="s" state="M"/>
    <connection from="621" to="626" fromLane="1" toLane="0" contPos="-4.00" via=":4_2_0" dir="L" state="M"/>
    <connection from="621" to="628" fromLane="1" toLane="0" contPos="-4.00" via=":4_3_0" dir="s" state="M"/>
    <connection from="622" to="630" fromLane="0" toLane="0" contPos="-4.00" via=":6_0_0" dir="l" state="M"/>
    <connection from="622" to="630" fromLane="1" toLane="1" contPos="-4.00" via=":6_1_0" dir="l" state="M"/>
    <connection from="626" to="625" fromLane="0" toLane="0" contPos="-4.00" via=":7_0_0" dir="l" state="M"/>
    <connection from="628" to="625" fromLane="0" toLane="1" contPos="-4.00" via=":7_1_0" dir="l" state="M"/>
    <connection from="630" to="619" fromLane="0" toLane="0" contPos="-4.00" via=":1_2_0" dir="s" state="m"/>
    <connection from="630" to="619" fromLane="1" toLane="1" contPos="-4.00" via=":1_2_1" dir="s" state="m"/>
    <connection from="631" to="619" fromLane="0" toLane="0" contPos="-4.00" via=":1_0_0" dir="s" state="M"/>
    <connection from="631" to="619" fromLane="1" toLane="1" contPos="-4.00" via=":1_0_1" dir="s" state="M"/>

    <connection from=":1_0" to="619" fromLane="0" toLane="0" dir="s" state="M"/>
    <connection from=":1_0" to="619" fromLane="1" toLane="1" dir="s" state="M"/>
    <connection from=":1_2" to="619" fromLane="0" toLane="0" dir="s" state="M"/>
    <connection from=":1_2" to="619" fromLane="1" toLane="1" dir="s" state="M"/>
    <connection from=":4_0" to="631" fromLane="0" toLane="0" dir="s" state="M"/>
    <connection from=":4_0" to="631" fromLane="1" toLane="1" dir="s" state="M"/>
    <connection from=":4_2" to="626" fromLane="0" toLane="0" dir="L" state="M"/>
    <connection from=":4_3" to="628" fromLane="0" toLane="0" dir="s" state="M"/>
    <connection from=":6_0" to="630" fromLane="0" toLane="0" dir="l" state="M"/>
    <connection from=":6_1" to="630" fromLane="0" toLane="1" dir="l" state="M"/>
    <connection from=":7_0" to="625" fromLane="0" toLane="0" dir="l" state="M"/>
    <connection from=":7_1" to="625" fromLane="0" toLane="1" dir="l" state="M"/>

</net>
