<!-- generated on 2020-12-18 16:19:17.711351 by ipykernel_launcher.py v1_2_0+5214-53edc58fcd
-->
<edges>
	<edge from="1" function="normal" id="619" length="70.30110991945571" numLanes="2" priority="1" speed="36.11111111111111" spreadType="center" to="2">
		<lane allow="moped bicycle pedestrian custom1 trailer evehicle rail_urban ship private truck vip custom2 authority delivery rail_electric taxi tram army hov coach motorcycle passenger bus rail emergency" index="0" length="70.30110991945571" shape="686507.07,5334960.7 686507.265,5334995.9 686507.465,5335031.0" speed="36.11111111111111" width="2.5"/>
		<lane allow="moped bicycle pedestrian custom1 trailer evehicle rail_urban ship private truck vip custom2 authority delivery rail_electric taxi tram army hov coach motorcycle passenger bus rail emergency" index="1" length="70.30110991945571" shape="686504.565,5334960.7 686504.76,5334995.9 686504.96,5335031.0" speed="36.11111111111111" width="2.5"/>
	</edge>
	<edge from="3" function="normal" id="621" length="48.652127958894724" numLanes="2" priority="1" speed="36.11111111111111" spreadType="center" to="4">
		<lane allow="moped bicycle pedestrian custom1 trailer evehicle rail_urban ship private truck vip custom2 authority delivery rail_electric taxi tram army hov coach motorcycle passenger bus rail emergency" index="0" length="48.652127958894724" shape="686507.555,5334894.0 686507.325,5334918.35 686507.095,5334942.7" speed="36.11111111111111" width="2.5100000000093132"/>
		<lane allow="moped bicycle pedestrian custom1 trailer evehicle rail_urban ship private truck vip custom2 authority delivery rail_electric taxi tram army hov coach motorcycle passenger bus rail emergency" index="1" length="48.652127958894724" shape="686505.045,5334894.0 686504.815,5334918.3 686504.59,5334942.65" speed="36.11111111111111" width="2.5019992006616945"/>
	</edge>
	<edge from="5" function="normal" id="622" length="119.55529158461803" numLanes="2" priority="1" speed="36.11111111111111" spreadType="center" to="6">
		<lane allow="moped bicycle pedestrian custom1 trailer evehicle rail_urban ship private vip custom2 authority delivery rail_electric taxi tram army hov coach motorcycle passenger rail emergency" index="0" length="119.55529158461803" shape="686376.87,5334954.15 686416.54,5334953.45 686433.105,5334952.85 686453.155,5334951.65 686496.25,5334948.4" speed="36.11111111111111" width="2.4083189151977287"/>
		<lane allow="moped bicycle pedestrian custom1 trailer evehicle rail_urban ship private vip custom2 authority delivery rail_electric taxi tram army hov coach motorcycle passenger rail emergency" index="1" length="119.55529158461803" shape="686376.9199999999,5334956.65 686416.6399999999,5334955.95 686433.24,5334955.35 686453.3200000001,5334954.15 686496.4099999999,5334950.85" speed="36.11111111111111" width="2.5007198963483965"/>
	</edge>
	<edge from="7" function="normal" id="625" length="119.77884656763827" numLanes="2" priority="1" speed="36.11111111111111" spreadType="center" to="8">
		<lane allow="moped bicycle pedestrian custom1 trailer evehicle rail_urban ship private vip custom2 authority delivery rail_electric taxi tram army hov coach motorcycle passenger rail emergency" index="0" length="119.77884656763827" shape="686496.815,5334955.85 686453.5800000001,5334959.15 686433.4450000001,5334960.35 686416.81,5334960.95 686377.03,5334961.65" speed="36.11111111111111" width="2.50071989635119"/>
		<lane allow="moped bicycle pedestrian custom1 trailer evehicle rail_urban ship private vip custom2 authority delivery rail_electric taxi tram army hov coach motorcycle passenger rail emergency" index="1" length="119.77884656763827" shape="686496.575,5334953.35 686453.45,5334956.65 686433.345,5334957.85 686416.725,5334958.45 686376.975,5334959.15" speed="36.11111111111111" width="2.5004999500109286"/>
	</edge>
	<edge from="4" function="normal" id="626" length="17.02189722481454" numLanes="1" priority="1" speed="36.11111111111111" spreadType="center" to="7">
		<lane allow="moped bicycle pedestrian custom1 trailer evehicle rail_urban ship private vip custom2 authority delivery rail_electric taxi tram army hov coach motorcycle passenger rail emergency" index="0" length="17.02189722481454" shape="686504.59,5334942.65 686504.395,5334946.1 686503.915,5334948.85 686503.215,5334951.0 686502.4299999999,5334952.55 686501.375,5334953.85 686500.035,5334954.949999999 686498.47,5334955.6 686496.815,5334955.85" speed="36.11111111111111" width="2.4399999994402903"/>
	</edge>
	<edge from="6" function="normal" id="630" length="14.770355028752824" numLanes="2" priority="1" speed="36.11111111111111" spreadType="center" to="1">
		<lane allow="moped bicycle pedestrian custom1 trailer evehicle rail_urban ship private vip custom2 authority delivery rail_electric taxi tram army hov coach motorcycle passenger rail emergency" index="0" length="14.770355028752824" shape="686496.25,5334948.4 686497.72,5334948.35 686499.1950000001,5334948.5 686500.67,5334948.85 686502.0900000001,5334949.45 686503.375,5334950.3 686504.46,5334951.4 686505.31,5334952.65 686505.9450000001,5334953.949999999 686506.405,5334955.3 686506.72,5334956.7 686507.03,5334959.4 686507.07,5334960.7" speed="36.11111111111111" width="2.4083189151977287"/>
		<lane allow="moped bicycle pedestrian custom1 trailer evehicle rail_urban ship private vip custom2 authority delivery rail_electric taxi tram army hov coach motorcycle passenger rail emergency" index="1" length="14.770355028752824" shape="686496.4099999999,5334950.85 686497.55,5334950.85 686498.69,5334951.0 686499.8,5334951.25 686500.845,5334951.7 686501.78,5334952.35 686502.575,5334953.15 686503.2,5334954.1 686503.6799999999,5334955.15 686504.035,5334956.25 686504.275,5334957.35 686504.53,5334959.6 686504.565,5334960.7" speed="36.11111111111111" width="2.4586378342786674"/>
	</edge>
	<edge from="4" function="normal" id="628" length="15.037720148051676" numLanes="1" priority="1" speed="36.11111111111111" spreadType="center" to="7">
		<lane allow="moped bicycle pedestrian custom1 trailer evehicle rail_urban ship private vip custom2 authority delivery rail_electric taxi tram army hov coach motorcycle passenger rail emergency" index="0" length="15.037720148051676" shape="686504.59,5334942.65 686504.38,5334945.55 686503.865,5334947.8 686503.1950000001,5334949.4 686502.225,5334950.800000001 686500.94,5334952.0 686499.415,5334952.8 686497.745,5334953.25 686496.575,5334953.35" speed="36.11111111111111" width="2.469028148713695"/>
	</edge>
	<edge from="4" function="normal" id="631" length="18.000018055545194" numLanes="2" priority="1" speed="36.11111111111111" spreadType="center" to="1">
		<lane allow="moped bicycle pedestrian custom1 trailer evehicle rail_urban ship private truck vip custom2 authority delivery rail_electric taxi tram army hov coach motorcycle passenger bus rail emergency" index="0" length="18.000018055545194" shape="686507.095,5334942.7 686507.085,5334951.7 686507.07,5334960.7" speed="36.11111111111111" width="2.5"/>
		<lane allow="moped bicycle pedestrian custom1 trailer evehicle rail_urban ship private truck vip custom2 authority delivery rail_electric taxi tram army hov coach motorcycle passenger bus rail emergency" index="1" length="18.000018055545194" shape="686504.59,5334942.65 686504.575,5334951.7 686504.565,5334960.7" speed="36.11111111111111" width="2.5019992006616945"/>
	</edge>
</edges>
