<routes>
	<vehicle depart="0.1" departLane="0" departPos="35.343310451876384" departSpeed="6.938152" id="327" type="bicycle">
		<route edges="517 514"/>
	</vehicle>
	<vehicle depart="0.1" departLane="0" departPos="33.98885171817963" departSpeed="6.9348372" id="337" type="bicycle">
		<route edges="517 514"/>
	</vehicle>
	<vehicle depart="0.1" departLane="0" departPos="35.29402927949674" departSpeed="6.9360616" id="384" type="bicycle">
		<route edges="518 558 555"/>
	</vehicle>
	<vehicle depart="0.1" departLane="0" departPos="10.809941740266956" departSpeed="3.5816543" id="399" type="bicycle">
		<route edges="625 22"/>
	</vehicle>
	<vehicle depart="0.1" departLane="0" departPos="43.513208440128" departSpeed="0.38525233" id="342" type="bus">
		<route edges="537 514"/>
	</vehicle>
	<vehicle depart="0.1" departLane="0" departPos="32.949488376967636" departSpeed="0.0022990433" id="347" type="bus">
		<route edges="22 19"/>
	</vehicle>
	<vehicle depart="0.1" departLane="0" departPos="51.78598402254228" departSpeed="0.00026855619" id="355" type="bus">
		<route edges="518 562"/>
	</vehicle>
	<vehicle depart="0.1" departLane="0" departPos="136.412596636625" departSpeed="4.9079726" id="367" type="bus">
		<route edges="556 578"/>
	</vehicle>
	<vehicle depart="0.1" departLane="0" departPos="62.3900956078221" departSpeed="13.822925" id="31" type="passenger">
		<route edges="556 578"/>
	</vehicle>
	<vehicle depart="0.1" departLane="0" departPos="7.255061039407257" departSpeed="4.3041166" id="35" type="passenger">
		<route edges=":58_1 538"/>
	</vehicle>
	<vehicle depart="0.1" departLane="0" departPos="58.888198812185635" departSpeed="1.5075951e-05" id="37" type="passenger">
		<route edges="518 562"/>
	</vehicle>
	<vehicle depart="0.1" departLane="0" departPos="77.41273892168965" departSpeed="3.3009552" id="39" type="passenger">
		<route edges="517 514"/>
	</vehicle>
	<vehicle depart="0.1" departLane="0" departPos="16.136794505282936" departSpeed="7.6397709" id="310" type="passenger">
		<route edges=":54_1 578 19"/>
	</vehicle>
	<vehicle depart="0.1" departLane="0" departPos="59.77521302247973" departSpeed="0.00084603496" id="311" type="passenger">
		<route edges="25 626"/>
	</vehicle>
	<vehicle depart="0.1" departLane="0" departPos="7.493320519927222" departSpeed="3.2653879" id="312" type="passenger">
		<route edges=":55_5 26"/>
	</vehicle>
	<vehicle depart="0.1" departLane="0" departPos="38.60227636981939" departSpeed="0.0" id="313" type="passenger">
		<route edges="20 579"/>
	</vehicle>
	<vehicle depart="0.1" departLane="0" departPos="52.5385330910677" departSpeed="0.007884432" id="316" type="passenger">
		<route edges="25 626"/>
	</vehicle>
	<vehicle depart="0.1" departLane="0" departPos="57.04749049728695" departSpeed="2.16215" id="319" type="passenger">
		<route edges="537 518 562"/>
	</vehicle>
	<vehicle depart="0.1" departLane="0" departPos="79.96969810581535" departSpeed="0.0" id="320" type="passenger">
		<route edges="518 562"/>
	</vehicle>
	<vehicle depart="0.1" departLane="0" departPos="6.880656439414309" departSpeed="0.23770418" id="321" type="passenger">
		<route edges="22 19"/>
	</vehicle>
	<vehicle depart="0.1" departLane="0" departPos="8.553158340188467" departSpeed="7.0858824" id="323" type="passenger">
		<route edges="517 538"/>
	</vehicle>
	<vehicle depart="0.1" departLane="0" departPos="11.876383244151187" departSpeed="0.0" id="332" type="passenger">
		<route edges="579 559"/>
	</vehicle>
	<vehicle depart="0.1" departLane="0" departPos="161.752498903962" departSpeed="6.4021655" id="333" type="passenger">
		<route edges="556 559 517 538"/>
	</vehicle>
	<vehicle depart="0.1" departLane="0" departPos="72.89631885292413" departSpeed="0.0" id="334" type="passenger">
		<route edges="518 562"/>
	</vehicle>
	<vehicle depart="0.1" departLane="0" departPos="31.502268360914123" departSpeed="0.0" id="336" type="passenger">
		<route edges="20 579"/>
	</vehicle>
	<vehicle depart="0.1" departLane="0" departPos="39.5495838705009" departSpeed="0.0" id="338" type="passenger">
		<route edges="22 19"/>
	</vehicle>
	<vehicle depart="0.1" departLane="0" departPos="65.89230376435127" departSpeed="0.0" id="341" type="passenger">
		<route edges="518 562"/>
	</vehicle>
	<vehicle depart="0.1" departLane="0" departPos="149.55769579015939" departSpeed="5.5159896" id="343" type="passenger">
		<route edges="556 559 562"/>
	</vehicle>
	<vehicle depart="0.1" departLane="0" departPos="23.212716891045908" departSpeed="6.7346497" id="345" type="passenger">
		<route edges="517 538"/>
	</vehicle>
	<vehicle depart="0.1" departLane="0" departPos="20.14684316399123" departSpeed="0.0" id="346" type="passenger">
		<route edges="20 579"/>
	</vehicle>
	<vehicle depart="0.1" departLane="0" departPos="28.949304536130665" departSpeed="0.092790665" id="349" type="passenger">
		<route edges="537 514"/>
	</vehicle>
	<vehicle depart="0.1" departLane="0" departPos="72.49997774583349" departSpeed="3.7148503" id="351" type="passenger">
		<route edges="561 517 538"/>
	</vehicle>
	<vehicle depart="0.1" departLane="0" departPos="19.94849520060357" departSpeed="0.018724293" id="353" type="passenger">
		<route edges="22 19"/>
	</vehicle>
	<vehicle depart="0.1" departLane="0" departPos="62.22410184014361" departSpeed="2.5628999" id="356" type="passenger">
		<route edges="561 558 578 23"/>
	</vehicle>
	<vehicle depart="0.1" departLane="0" departPos="13.442109596265711" departSpeed="0.080226593" id="358" type="passenger">
		<route edges="22 19"/>
	</vehicle>
	<vehicle depart="0.1" departLane="0" departPos="21.813401837389655" departSpeed="0.014802005" id="359" type="passenger">
		<route edges="537 514"/>
	</vehicle>
	<vehicle depart="0.1" departLane="0" departPos="53.55859238854572" departSpeed="1.7329081" id="362" type="passenger">
		<route edges="561 558 555"/>
	</vehicle>
	<vehicle depart="0.1" departLane="0" departPos="17.321084645501227" departSpeed="0.51545919" id="363" type="passenger">
		<route edges=":55_3 22"/>
	</vehicle>
	<vehicle depart="0.1" departLane="0" departPos="8.096858249110188" departSpeed="0.0" id="364" type="passenger">
		<route edges="20 579"/>
	</vehicle>
	<vehicle depart="0.1" departLane="0" departPos="14.718413997660871" departSpeed="0.0019330591" id="368" type="passenger">
		<route edges="537 514"/>
	</vehicle>
	<vehicle depart="0.1" departLane="0" departPos="116.7204248968124" departSpeed="4.8892079" id="370" type="passenger">
		<route edges="556 578"/>
	</vehicle>
	<vehicle depart="0.1" departLane="0" departPos="45.274038501016506" departSpeed="1.1945359" id="371" type="passenger">
		<route edges="561 558"/>
	</vehicle>
	<vehicle depart="0.1" departLane="0" departPos="69.05731693511802" departSpeed="0.0" id="372" type="passenger">
		<route edges="625 22"/>
	</vehicle>
	<vehicle depart="0.1" departLane="0" departPos="103.67150633042205" departSpeed="5.438359" id="373" type="passenger">
		<route edges="556 578"/>
	</vehicle>
	<vehicle depart="0.1" departLane="0" departPos="32.494555922583544" departSpeed="0.017550635" id="375" type="passenger">
		<route edges="518 562"/>
	</vehicle>
	<vehicle depart="0.1" departLane="0" departPos="37.40465205194814" departSpeed="1.093971" id="377" type="passenger">
		<route edges="561 517"/>
	</vehicle>
	<vehicle depart="0.1" departLane="0" departPos="62.576994301356095" departSpeed="0.022269298" id="378" type="passenger">
		<route edges="625 22"/>
	</vehicle>
	<vehicle depart="0.1" departLane="0" departPos="25.647811588309313" departSpeed="0.085822977" id="380" type="passenger">
		<route edges="518 562"/>
	</vehicle>
	<vehicle depart="0.1" departLane="0" departPos="7.698254971019624" departSpeed="0.0004462772" id="381" type="passenger">
		<route edges="537 514"/>
	</vehicle>
	<vehicle depart="0.1" departLane="0" departPos="55.6101055563886" departSpeed="0.16032168" id="383" type="passenger">
		<route edges="625 22"/>
	</vehicle>
	<vehicle depart="0.1" departLane="0" departPos="38.84094366697038" departSpeed="14.561251" id="386" type="passenger">
		<route edges="556 578"/>
	</vehicle>
	<vehicle depart="0.1" departLane="0" departPos="47.826175271175316" departSpeed="0.55631281" id="387" type="passenger">
		<route edges="625 22"/>
	</vehicle>
	<vehicle depart="0.1" departLane="0" departPos="8.266629604880633" departSpeed="15.140548" id="388" type="passenger">
		<route edges="556 578"/>
	</vehicle>
	<vehicle depart="0.1" departLane="0" departPos="19.069698583699836" departSpeed="1.4287215" id="389" type="passenger">
		<route edges="561 517"/>
	</vehicle>
	<vehicle depart="0.1" departLane="0" departPos="39.357110001721935" departSpeed="1.3014267" id="391" type="passenger">
		<route edges="625 22"/>
	</vehicle>
	<vehicle depart="0.1" departLane="0" departPos="30.40514163480177" departSpeed="1.9916429" id="393" type="passenger">
		<route edges="625 22"/>
	</vehicle>
	<vehicle depart="0.1" departLane="0" departPos="2.5" departSpeed="3.69565" id="394" type="passenger">
		<route edges="518 562"/>
	</vehicle>
	<vehicle depart="0.1" departLane="0" departPos="10.728363847639688" departSpeed="1.5227421" id="397" type="passenger">
		<route edges="561 517"/>
	</vehicle>
	<vehicle depart="0.1" departLane="0" departPos="17.954875508467396" departSpeed="0.0" id="398" type="passenger">
		<route edges="515 518"/>
	</vehicle>
	<vehicle depart="0.1" departLane="0" departPos="9.830340970566404" departSpeed="0.99298281" id="3102" type="passenger">
		<route edges="515 518"/>
	</vehicle>
	<vehicle depart="0.1" departLane="0" departPos="48.55030224423398" departSpeed="1.1010672" id="331" type="motorcycle">
		<route edges="537 514"/>
	</vehicle>
	<vehicle depart="0.1" departLane="0" departPos="24.603914991317264" departSpeed="0.0" id="339" type="motorcycle">
		<route edges="20 579"/>
	</vehicle>
	<vehicle depart="0.1" departLane="0" departPos="13.043248988651687" departSpeed="0.0" id="352" type="motorcycle">
		<route edges="20 579"/>
	</vehicle>
	<vehicle depart="0.1" departLane="0" departPos="37.028835590123" departSpeed="0.0025541285" id="369" type="motorcycle">
		<route edges="518 562"/>
	</vehicle>
	<vehicle depart="0.1" departLane="0" departPos="3.75" departSpeed="7.6750175" id="30" type="truck">
		<route edges="19"/>
	</vehicle>
	<vehicle depart="0.1" departLane="0" departPos="69.42423011579818" departSpeed="0.0" id="324" type="truck">
		<route edges="25 626"/>
	</vehicle>
	<vehicle depart="0.1" departLane="0" departPos="45.1484013915533" departSpeed="0.036871633" id="335" type="truck">
		<route edges="25 626"/>
	</vehicle>
	<vehicle depart="0.1" departLane="0" departPos="29.607673231503448" departSpeed="1.2623828" id="385" type="truck">
		<route edges="561 517"/>
	</vehicle>
	<vehicle depart="0.1" departLane="0" departPos="16.45950282006993" departSpeed="1.8428671" id="390" type="truck">
		<route edges="518 562"/>
	</vehicle>
</routes>
