<routes>
	<vehicle depart="0.1" departLane="0" departPos="20.444954319373846" departSpeed="12.878717" id="1" type="passenger">
		<route edges="50201 50213 50197"/>
	</vehicle>
	<vehicle depart="0.1" departLane="0" departPos="110.31511904413426" departSpeed="2.4101529" id="2" type="passenger">
		<route edges="50195 50209 50203"/>
	</vehicle>
	<vehicle depart="0.1" departLane="0" departPos="147.3986059863715" departSpeed="2.377508" id="4" type="passenger">
		<route edges="50205 50217 50199"/>
	</vehicle>
	<vehicle depart="0.1" departLane="0" departPos="155.3987677038365" departSpeed="3.0935135" id="5" type="passenger">
		<route edges="50205 50217 50199"/>
	</vehicle>
	<vehicle depart="0.1" departLane="0" departPos="12.0296824929303" departSpeed="4.3250391" id="7" type="passenger">
		<route edges="50201 50213 50197"/>
	</vehicle>
</routes>
