<routes>
	<vehicle depart="0.1" departLane="0" departPos="50.66880136489923" departSpeed="4.3495172" id="334" type="bus">
		<route edges="95876 96121"/>
	</vehicle>
	<vehicle depart="0.1" departLane="0" departPos="19.039605876929215" departSpeed="4.1064281" id="343" type="bus">
		<route edges="95876 96121"/>
	</vehicle>
	<vehicle depart="0.1" departLane="0" departPos="6.927672854588786" departSpeed="0.19943818" id="311" type="passenger">
		<route edges=":19_0 96118"/>
	</vehicle>
	<vehicle depart="0.1" departLane="0" departPos="16.186779224575993" departSpeed="11.865213" id="314" type="passenger">
		<route edges=":18_3 96121 96124"/>
	</vehicle>
	<vehicle depart="0.1" departLane="0" departPos="10.03441020507994" departSpeed="0.0" id="322" type="passenger">
		<route edges=":17_2 96124"/>
	</vehicle>
	<vehicle depart="0.1" departLane="0" departPos="5.248623027398409" departSpeed="1.483255" id="328" type="passenger">
		<route edges=":18_0 96121"/>
	</vehicle>
	<vehicle depart="0.1" departLane="0" departPos="63.76345054799663" departSpeed="3.3341722" id="331" type="passenger">
		<route edges="95876 96121"/>
	</vehicle>
	<vehicle depart="0.1" departLane="0" departPos="30.43592697663622" departSpeed="4.9297869" id="337" type="passenger">
		<route edges="95876 96121"/>
	</vehicle>
	<vehicle depart="0.1" departLane="0" departPos="11.57555952013789" departSpeed="0.0" id="326" type="motorcycle">
		<route edges=":18_0 96121"/>
	</vehicle>
	<vehicle depart="0.1" departLane="0" departPos="9.515502034725602" departSpeed="0.46576922" id="33" type="truck">
		<route edges=":17_0 96124"/>
	</vehicle>
</routes>
