<!-- generated on Tue Feb  9 22:15:51 2021 by Eclipse SUMO netconvert Version 1.8.0
<configuration xmlns:xsi="http://www.w3.org/2001/XMLSchema-instance" xsi:noNamespaceSchemaLocation="http://sumo.dlr.de/xsd/netconvertConfiguration.xsd">

    <input>
        <node-files value="./converted_scenarios/scenario-factory/ITA_Foggia-19_1_I-1-1/ITA_Foggia-19_1_I-1-1.nod.xml"/>
        <edge-files value="./converted_scenarios/scenario-factory/ITA_Foggia-19_1_I-1-1/ITA_Foggia-19_1_I-1-1.edg.xml"/>
        <connection-files value="./converted_scenarios/scenario-factory/ITA_Foggia-19_1_I-1-1/ITA_Foggia-19_1_I-1-1.con.xml"/>
        <tllogic-files value="./converted_scenarios/scenario-factory/ITA_Foggia-19_1_I-1-1/ITA_Foggia-19_1_I-1-1.tll.xml"/>
        <type-files value="/home/zen/commonroad-interactive-benchmarks/install/commonroad-map-tool/crmapconverter/sumo_map/templates/DEU.typ.xml"/>
    </input>

    <output>
        <output-file value="./converted_scenarios/scenario-factory/ITA_Foggia-19_1_I-1-1/ITA_Foggia-19_1_I-1-1.net.xml"/>
    </output>

    <processing>
        <geometry.remove.keep-edges.explicit value="true"/>
        <geometry.avoid-overlap value="true"/>
        <offset.disable-normalization value="true"/>
    </processing>

    <junctions>
        <no-turnarounds value="true"/>
        <junctions.internal-link-detail value="20"/>
    </junctions>

    <report>
        <aggregate-warnings value="5"/>
    </report>

    <random_number>
        <seed value="1234"/>
    </random_number>

</configuration>
--><net xmlns:xsi="http://www.w3.org/2001/XMLSchema-instance" version="1.6" junctionCornerDetail="5" junctionLinkDetail="20" limitTurnSpeed="5.50" xsi:noNamespaceSchemaLocation="http://sumo.dlr.de/xsd/net_file.xsd">

    <location netOffset="0.00,0.00" convBoundary="41.10,-1.67,196.29,181.04" origBoundary="41.10,-2.61,196.29,182.00" projParameter="!"/>

    <type id="highway.bridleway" priority="1" speed="2.78" allow="pedestrian" oneway="1" width="2.00"/>
    <type id="highway.bus_guideway" priority="1" speed="27.78" allow="bus" oneway="1"/>
    <type id="highway.cycleway" priority="1" speed="8.33" allow="bicycle" oneway="0" width="1.00"/>
    <type id="highway.footway" priority="1" speed="2.78" allow="pedestrian" oneway="1" width="2.00"/>
    <type id="highway.ford" priority="1" speed="2.78" allow="army" oneway="0"/>
    <type id="highway.living_street" priority="2" speed="2.78" disallow="tram rail_urban rail rail_electric rail_fast ship" oneway="0"/>
    <type id="highway.motorway" priority="14" speed="39.44" allow="private emergency authority army vip passenger hov taxi bus coach delivery truck trailer motorcycle evehicle custom1 custom2" oneway="1"/>
    <type id="highway.motorway_link" priority="9" speed="22.22" allow="private emergency authority army vip passenger hov taxi bus coach delivery truck trailer motorcycle evehicle custom1 custom2" oneway="1"/>
    <type id="highway.path" priority="1" speed="2.78" allow="pedestrian bicycle" oneway="0" width="2.00"/>
    <type id="highway.pedestrian" priority="1" speed="2.78" allow="pedestrian" oneway="1" width="2.00"/>
    <type id="highway.primary" priority="12" speed="27.78" disallow="pedestrian tram rail_urban rail rail_electric rail_fast ship" oneway="0"/>
    <type id="highway.primary_link" priority="7" speed="22.22" disallow="pedestrian tram rail_urban rail rail_electric rail_fast ship" oneway="0"/>
    <type id="highway.raceway" priority="15" speed="83.33" allow="vip" oneway="0"/>
    <type id="highway.residential" priority="3" speed="13.89" disallow="pedestrian tram rail_urban rail rail_electric rail_fast ship" oneway="0"/>
    <type id="highway.secondary" priority="11" speed="27.78" disallow="pedestrian tram rail_urban rail rail_electric rail_fast ship" oneway="0"/>
    <type id="highway.secondary_link" priority="6" speed="22.22" disallow="pedestrian tram rail_urban rail rail_electric rail_fast ship" oneway="0"/>
    <type id="highway.service" priority="1" speed="5.56" allow="pedestrian delivery bicycle" oneway="0"/>
    <type id="highway.stairs" priority="1" speed="1.39" allow="pedestrian" oneway="1" width="2.00"/>
    <type id="highway.step" priority="1" speed="1.39" allow="pedestrian" oneway="1" width="2.00"/>
    <type id="highway.steps" priority="1" speed="1.39" allow="pedestrian" oneway="1" width="2.00"/>
    <type id="highway.tertiary" priority="10" speed="22.22" disallow="pedestrian tram rail_urban rail rail_electric rail_fast ship" oneway="0"/>
    <type id="highway.tertiary_link" priority="5" speed="22.22" disallow="pedestrian tram rail_urban rail rail_electric rail_fast ship" oneway="0"/>
    <type id="highway.track" priority="1" speed="5.56" allow="pedestrian motorcycle moped bicycle" oneway="0"/>
    <type id="highway.trunk" priority="13" speed="27.78" disallow="pedestrian bicycle tram rail_urban rail rail_electric rail_fast ship" oneway="0"/>
    <type id="highway.trunk_link" priority="8" speed="22.22" disallow="pedestrian bicycle tram rail_urban rail rail_electric rail_fast ship" oneway="0"/>
    <type id="highway.unclassified" priority="4" speed="13.89" disallow="pedestrian tram rail_urban rail rail_electric rail_fast ship" oneway="0"/>
    <type id="highway.unsurfaced" priority="1" speed="8.33" disallow="tram rail_urban rail rail_electric rail_fast ship" oneway="0"/>
    <type id="railway.highspeed" priority="21" speed="69.44" allow="rail_fast" oneway="1"/>
    <type id="railway.light_rail" priority="19" speed="27.78" allow="rail_urban" oneway="1"/>
    <type id="railway.preserved" priority="16" speed="27.78" allow="rail" oneway="1"/>
    <type id="railway.rail" priority="20" speed="44.44" allow="rail" oneway="1"/>
    <type id="railway.subway" priority="18" speed="27.78" allow="rail_urban" oneway="1"/>
    <type id="railway.tram" priority="17" speed="13.89" allow="tram" oneway="1"/>

    <edge id=":17_0" function="internal">
        <lane id=":17_0_0" index="0" disallow="pedestrian tram rail_urban rail rail_electric rail_fast ship" speed="36.11" length="19.11" width="3.50" shape="121.11,96.76 129.82,110.21 131.50,112.80"/>
    </edge>
    <edge id=":17_1" function="internal">
        <lane id=":17_1_0" index="0" disallow="pedestrian tram rail_urban rail rail_electric rail_fast ship" speed="36.11" length="19.14" width="3.50" shape="118.19,98.64 126.88,112.11 128.57,114.72"/>
    </edge>
    <edge id=":17_2" function="internal">
        <lane id=":17_2_0" index="0" disallow="pedestrian tram rail_urban rail rail_electric rail_fast ship" speed="8.56" length="12.85" width="3.50" shape="117.85,107.34 119.24,107.97 121.58,109.40 124.19,111.42 126.97,114.07 127.92,115.15"/>
    </edge>
    <edge id=":18_0" function="internal">
        <lane id=":18_0_0" index="0" disallow="pedestrian tram rail_urban rail rail_electric rail_fast ship" speed="8.41" length="16.79" width="3.50" shape="134.31,83.92 130.30,86.19 126.97,88.45 124.78,90.32 123.25,92.03 122.32,93.49 121.89,94.55 121.87,94.66"/>
    </edge>
    <edge id=":18_1" function="internal">
        <lane id=":18_1_0" index="0" disallow="pedestrian tram rail_urban rail rail_electric rail_fast ship" speed="9.65" length="18.22" width="3.50" shape="115.44,85.71 116.44,85.89 118.66,85.86 121.39,85.40 124.58,84.45 128.70,82.78 132.68,80.82"/>
    </edge>
    <edge id=":18_2" function="internal">
        <lane id=":18_2_0" index="0" disallow="pedestrian tram rail_urban rail rail_electric rail_fast ship" speed="36.11" length="10.85" width="3.50" shape="114.07,86.78 116.29,89.74 120.33,95.64"/>
    </edge>
    <edge id=":18_3" function="internal">
        <lane id=":18_3_0" index="0" disallow="pedestrian tram rail_urban rail rail_electric rail_fast ship" speed="36.11" length="10.51" width="3.50" shape="111.32,88.94 113.43,91.75 117.38,97.52"/>
    </edge>
    <edge id=":19_0" function="internal">
        <lane id=":19_0_0" index="0" disallow="pedestrian tram rail_urban rail rail_electric rail_fast ship" speed="7.05" length="22.73" width="3.50" shape="98.93,66.46 103.82,73.29 112.52,84.68"/>
        <lane id=":19_0_1" index="1" disallow="pedestrian tram rail_urban rail rail_electric rail_fast ship" speed="7.11" length="23.07" width="3.50" shape="95.97,68.34 101.01,75.38 109.78,86.82"/>
    </edge>
    <edge id=":19_2" function="internal">
        <lane id=":19_2_0" index="0" disallow="pedestrian tram rail_urban rail rail_electric rail_fast ship" speed="13.66" length="29.49" width="3.49" shape="95.12,68.88 97.28,73.71 98.89,78.17 99.83,81.73 100.37,84.84 100.58,87.99 100.45,90.62 99.96,93.20 99.30,95.20 98.39,97.09"/>
    </edge>

    <edge id="95876" from="15" to="18" priority="3" type="highway.residential" spreadType="center" length="70.00" shape="196.29,51.38 125.36,88.87">
        <lane id="95876_0" index="0" disallow="pedestrian tram rail_urban rail rail_electric rail_fast ship" speed="36.11" length="70.00" width="3.50" customShape="1" shape="196.29,51.38 134.31,83.92"/>
    </edge>
    <edge id="95877" from="18" to="5" priority="3" type="highway.residential" spreadType="center" length="70.00" shape="123.72,85.77 194.66,48.28">
        <lane id="95877_0" index="0" disallow="pedestrian tram rail_urban rail rail_electric rail_fast ship" speed="36.11" length="70.00" width="3.50" customShape="1" shape="132.68,80.82 194.66,48.28"/>
    </edge>
    <edge id="95955" from="19" to="12" priority="3" type="highway.residential" spreadType="center" length="81.54">
        <lane id="95955_0" index="0" disallow="pedestrian tram rail_urban rail rail_electric rail_fast ship" speed="36.11" length="81.54" width="3.49" customShape="1" shape="104.79,87.50 96.99,99.18 95.30,101.05 93.39,102.69 90.90,104.41 86.94,106.60 81.13,109.62 77.29,112.03 61.46,122.79 41.95,136.19 41.10,136.74"/>
    </edge>
    <edge id="96026" from="14" to="17" priority="3" type="highway.residential" spreadType="center" length="81.08">
        <lane id="96026_0" index="0" disallow="pedestrian tram rail_urban rail rail_electric rail_fast ship" speed="36.11" length="81.08" width="3.50" customShape="1" shape="46.81,143.47 54.72,138.26 64.97,130.91 76.80,122.31 83.92,117.53 89.97,113.88 96.20,110.56 101.23,108.22 105.00,106.81 116.54,103.18"/>
    </edge>
    <edge id="96115" from="16" to="19" priority="3" type="highway.residential" spreadType="center" length="82.56">
        <lane id="96115_0" index="0" disallow="pedestrian tram rail_urban rail rail_electric rail_fast ship" speed="36.11" length="82.60" width="3.50" customShape="1" shape="53.67,-2.63 86.25,47.14 98.63,66.66"/>
        <lane id="96115_1" index="1" disallow="pedestrian tram rail_urban rail rail_electric rail_fast ship" speed="36.11" length="82.56" width="3.50" customShape="1" shape="50.73,-0.73 83.29,49.01 95.67,68.53"/>
    </edge>
    <edge id="96118" from="19" to="18" priority="3" type="highway.residential" spreadType="center" length="5.83">
        <lane id="96118_0" index="0" disallow="pedestrian tram rail_urban rail rail_electric rail_fast ship" speed="36.11" length="5.83" width="3.50" customShape="1" shape="112.52,84.68 111.54,83.40 114.12,86.74"/>
        <lane id="96118_1" index="1" disallow="pedestrian tram rail_urban rail rail_electric rail_fast ship" speed="36.11" length="5.84" width="3.50" customShape="1" shape="109.78,86.82 108.78,85.56 111.41,88.87"/>
    </edge>
    <edge id="96121" from="18" to="17" priority="3" type="highway.residential" spreadType="center" length="1.37">
        <lane id="96121_0" index="0" disallow="pedestrian tram rail_urban rail rail_electric rail_fast ship" speed="36.11" length="1.37" width="3.50" customShape="1" shape="120.37,95.61 121.11,96.76"/>
        <lane id="96121_1" index="1" disallow="pedestrian tram rail_urban rail rail_electric rail_fast ship" speed="36.11" length="1.38" width="3.50" customShape="1" shape="117.45,97.47 118.19,98.64"/>
    </edge>
    <edge id="96124" from="17" to="10" priority="3" type="highway.residential" spreadType="center" length="80.05">
        <lane id="96124_0" index="0" disallow="pedestrian tram rail_urban rail rail_electric rail_fast ship" speed="36.11" length="80.12" width="3.50" customShape="1" shape="131.46,112.83 163.37,161.52 171.62,174.71 174.91,180.14"/>
        <lane id="96124_1" index="1" disallow="pedestrian tram rail_urban rail rail_electric rail_fast ship" speed="36.11" length="80.05" width="3.50" customShape="1" shape="128.53,114.75 160.42,163.41 168.66,176.58 171.94,182.00"/>
    </edge>

    <junction id="10" type="dead_end" x="173.41" y="181.04" incLanes="96124_0 96124_1" intLanes="" shape="176.40,179.23 170.42,182.86" rightOfWay="edgePriority"/>
    <junction id="12" type="dead_end" x="41.10" y="136.74" incLanes="95955_0" intLanes="" shape="42.06,138.20 40.15,135.28" rightOfWay="edgePriority"/>
    <junction id="14" type="dead_end" x="46.81" y="143.47" incLanes="" intLanes="" shape="47.77,144.93 45.85,142.01" rightOfWay="edgePriority"/>
    <junction id="15" type="dead_end" x="196.29" y="51.38" incLanes="" intLanes="" shape="195.47,49.83 197.10,52.93" rightOfWay="edgePriority"/>
    <junction id="16" type="dead_end" x="52.20" y="-1.67" incLanes="" intLanes="" shape="49.28,0.25 55.13,-3.59" rightOfWay="edgePriority"/>
    <junction id="17" type="priority" x="120.89" y="109.61" incLanes="96121_0 96121_1 96026_0" intLanes=":17_0_0 :17_1_0 :17_2_0" shape="127.06,115.71 132.92,111.87 122.59,95.82 116.72,99.58 116.02,101.51 117.06,104.85 119.24,105.72 120.76,107.19 122.57,109.34 124.67,112.18">
        <request index="0" response="000" foes="100" cont="0"/>
        <request index="1" response="000" foes="100" cont="0"/>
        <request index="2" response="011" foes="011" cont="0"/>
    </junction>
    <junction id="18" type="priority" x="124.57" y="87.30" incLanes="95876_0 96118_0 96118_1" intLanes=":18_0_0 :18_1_0 :18_2_0 :18_3_0" shape="135.12,85.47 131.87,79.27 127.20,81.66 123.31,83.52 120.20,84.85 117.86,85.65 116.29,85.92 115.50,85.66 110.04,89.96 111.40,91.68 112.39,92.98 113.17,94.06 113.92,95.18 114.80,96.55 115.97,98.41 121.84,94.67 122.84,92.91 124.62,91.54 127.26,89.84 130.76,87.82">
        <request index="0" response="1100" foes="1100" cont="0"/>
        <request index="1" response="0000" foes="0000" cont="0"/>
        <request index="2" response="0000" foes="0001" cont="0"/>
        <request index="3" response="0000" foes="0001" cont="0"/>
    </junction>
    <junction id="19" type="priority" x="99.63" y="79.48" incLanes="96115_0 96115_1" intLanes=":19_0_0 :19_0_1 :19_2_0" shape="108.40,87.89 113.90,83.60 100.11,65.72 94.20,69.47 97.23,74.32 99.66,78.37 101.49,81.62 102.71,84.06 103.33,85.70 103.34,86.53 106.25,88.47">
        <request index="0" response="000" foes="000" cont="0"/>
        <request index="1" response="000" foes="000" cont="0"/>
        <request index="2" response="000" foes="000" cont="0"/>
    </junction>
    <junction id="5" type="dead_end" x="194.66" y="48.28" incLanes="95877_0" intLanes="" shape="193.84,46.73 195.47,49.83" rightOfWay="edgePriority"/>

    <connection from="95876" to="96121" fromLane="0" toLane="0" contPos="-4.00" shape="134.31,83.92 130.30,86.19 126.97,88.45 124.78,90.32 123.25,92.03 122.32,93.49 121.89,94.55 121.67,95.68 121.71,96.83 122.01,97.93 122.54,98.97" via=":18_0_0" dir="r" state="m"/>
    <connection from="96026" to="96124" fromLane="0" toLane="1" contPos="-4.00" shape="105.97,106.50 108.10,105.99 110.28,105.76 112.48,105.83 114.64,106.20 116.74,106.84 119.24,107.97 121.58,109.40 124.19,111.42 126.97,114.07 129.86,117.37 132.81,121.34 134.04,123.16" via=":17_2_0" dir="l" state="m"/>
    <connection from="96115" to="96118" fromLane="0" toLane="0" contPos="-4.00" shape="91.89,56.04 97.10,63.91 103.82,73.29 111.46,83.30" via=":19_0_0" dir="s" state="M"/>
    <connection from="96115" to="96118" fromLane="1" toLane="1" contPos="-4.00" shape="88.94,57.92 94.23,65.91 101.01,75.38 108.70,85.45" via=":19_0_1" dir="s" state="M"/>
    <connection from="96115" to="95955" fromLane="1" toLane="0" contPos="-4.00" shape="88.94,57.92 92.44,63.78 95.13,68.91 97.28,73.71 98.89,78.17 99.83,81.73 100.37,84.84 100.58,87.99 100.45,90.62 99.96,93.20 99.30,95.20 98.39,97.09" via=":19_2_0" dir="l" state="M"/>
    <connection from="96118" to="95877" fromLane="0" toLane="0" contPos="-4.00" shape="111.60,83.49 112.38,84.31 113.27,84.95 114.81,85.60 116.44,85.89 118.66,85.86 121.39,85.40 124.58,84.45 128.70,82.78 132.68,80.82" via=":18_1_0" dir="r" state="M"/>
    <connection from="96118" to="96121" fromLane="0" toLane="0" contPos="-4.00" shape="111.60,83.49 116.29,89.74 121.33,97.09 122.54,98.97" via=":18_2_0" dir="l" state="M"/>
    <connection from="96118" to="96121" fromLane="1" toLane="1" contPos="-4.00" shape="108.86,85.65 113.43,91.75 118.39,99.00 119.59,100.83" via=":18_3_0" dir="l" state="M"/>
    <connection from="96121" to="96124" fromLane="0" toLane="0" contPos="-4.00" shape="122.67,99.17 129.82,110.21 136.97,121.24" via=":17_0_0" dir="r" state="M"/>
    <connection from="96121" to="96124" fromLane="1" toLane="1" contPos="-4.00" shape="119.73,101.06 126.88,112.11 134.04,123.16" via=":17_1_0" dir="r" state="M"/>

    <connection from=":17_0" to="96124" fromLane="0" toLane="0" dir="r" state="M"/>
    <connection from=":17_1" to="96124" fromLane="0" toLane="1" dir="r" state="M"/>
    <connection from=":17_2" to="96124" fromLane="0" toLane="1" dir="l" state="M"/>
    <connection from=":18_0" to="96121" fromLane="0" toLane="0" dir="r" state="M"/>
    <connection from=":18_1" to="95877" fromLane="0" toLane="0" dir="r" state="M"/>
    <connection from=":18_2" to="96121" fromLane="0" toLane="0" dir="l" state="M"/>
    <connection from=":18_3" to="96121" fromLane="0" toLane="1" dir="l" state="M"/>
    <connection from=":19_0" to="96118" fromLane="0" toLane="0" dir="s" state="M"/>
    <connection from=":19_0" to="96118" fromLane="1" toLane="1" dir="s" state="M"/>
    <connection from=":19_2" to="95955" fromLane="0" toLane="0" dir="l" state="M"/>

</net>