<routes>
	<vehicle depart="0.1" departLane="0" departPos="5.1525098744015345" departSpeed="6.0519234" id="312" type="passenger">
		<route edges=":48_4 8717 8715"/>
	</vehicle>
	<vehicle depart="0.1" departLane="0" departPos="69.16748039927965" departSpeed="5.2655016" id="315" type="passenger">
		<route edges="8723 8717 8997"/>
	</vehicle>
	<vehicle depart="0.1" departLane="0" departPos="52.64773313418357" departSpeed="3.5740368" id="318" type="passenger">
		<route edges="8723 8717"/>
	</vehicle>
	<vehicle depart="0.1" departLane="0" departPos="16.688308994551775" departSpeed="0.0" id="323" type="passenger">
		<route edges=":46_2 8752"/>
	</vehicle>
</routes>
