<!-- generated on Tue Feb  9 22:15:55 2021 by Eclipse SUMO netconvert Version 1.8.0
<configuration xmlns:xsi="http://www.w3.org/2001/XMLSchema-instance" xsi:noNamespaceSchemaLocation="http://sumo.dlr.de/xsd/netconvertConfiguration.xsd">

    <input>
        <node-files value="./converted_scenarios/scenario-factory/DEU_Muehlhausen-13_4_I-1-1/DEU_Muehlhausen-13_4_I-1-1.nod.xml"/>
        <edge-files value="./converted_scenarios/scenario-factory/DEU_Muehlhausen-13_4_I-1-1/DEU_Muehlhausen-13_4_I-1-1.edg.xml"/>
        <connection-files value="./converted_scenarios/scenario-factory/DEU_Muehlhausen-13_4_I-1-1/DEU_Muehlhausen-13_4_I-1-1.con.xml"/>
        <tllogic-files value="./converted_scenarios/scenario-factory/DEU_Muehlhausen-13_4_I-1-1/DEU_Muehlhausen-13_4_I-1-1.tll.xml"/>
        <type-files value="/home/zen/commonroad-interactive-benchmarks/install/commonroad-map-tool/crmapconverter/sumo_map/templates/DEU.typ.xml"/>
    </input>

    <output>
        <output-file value="./converted_scenarios/scenario-factory/DEU_Muehlhausen-13_4_I-1-1/DEU_Muehlhausen-13_4_I-1-1.net.xml"/>
    </output>

    <processing>
        <geometry.remove.keep-edges.explicit value="true"/>
        <geometry.avoid-overlap value="true"/>
        <offset.disable-normalization value="true"/>
    </processing>

    <junctions>
        <no-turnarounds value="true"/>
        <junctions.internal-link-detail value="20"/>
    </junctions>

    <report>
        <aggregate-warnings value="5"/>
    </report>

    <random_number>
        <seed value="1234"/>
    </random_number>

</configuration>
--><net xmlns:xsi="http://www.w3.org/2001/XMLSchema-instance" version="1.6" junctionCornerDetail="5" junctionLinkDetail="20" limitTurnSpeed="5.50" xsi:noNamespaceSchemaLocation="http://sumo.dlr.de/xsd/net_file.xsd">

    <location netOffset="0.00,0.00" convBoundary="-593.73,-591.03,-340.51,-286.80" origBoundary="-593.73,-591.03,-340.51,-286.80" projParameter="!"/>

    <type id="highway.bridleway" priority="1" speed="2.78" allow="pedestrian" oneway="1" width="2.00"/>
    <type id="highway.bus_guideway" priority="1" speed="27.78" allow="bus" oneway="1"/>
    <type id="highway.cycleway" priority="1" speed="8.33" allow="bicycle" oneway="0" width="1.00"/>
    <type id="highway.footway" priority="1" speed="2.78" allow="pedestrian" oneway="1" width="2.00"/>
    <type id="highway.ford" priority="1" speed="2.78" allow="army" oneway="0"/>
    <type id="highway.living_street" priority="2" speed="2.78" disallow="tram rail_urban rail rail_electric rail_fast ship" oneway="0"/>
    <type id="highway.motorway" priority="14" speed="39.44" allow="private emergency authority army vip passenger hov taxi bus coach delivery truck trailer motorcycle evehicle custom1 custom2" oneway="1"/>
    <type id="highway.motorway_link" priority="9" speed="22.22" allow="private emergency authority army vip passenger hov taxi bus coach delivery truck trailer motorcycle evehicle custom1 custom2" oneway="1"/>
    <type id="highway.path" priority="1" speed="2.78" allow="pedestrian bicycle" oneway="0" width="2.00"/>
    <type id="highway.pedestrian" priority="1" speed="2.78" allow="pedestrian" oneway="1" width="2.00"/>
    <type id="highway.primary" priority="12" speed="27.78" disallow="pedestrian tram rail_urban rail rail_electric rail_fast ship" oneway="0"/>
    <type id="highway.primary_link" priority="7" speed="22.22" disallow="pedestrian tram rail_urban rail rail_electric rail_fast ship" oneway="0"/>
    <type id="highway.raceway" priority="15" speed="83.33" allow="vip" oneway="0"/>
    <type id="highway.residential" priority="3" speed="13.89" disallow="pedestrian tram rail_urban rail rail_electric rail_fast ship" oneway="0"/>
    <type id="highway.secondary" priority="11" speed="27.78" disallow="pedestrian tram rail_urban rail rail_electric rail_fast ship" oneway="0"/>
    <type id="highway.secondary_link" priority="6" speed="22.22" disallow="pedestrian tram rail_urban rail rail_electric rail_fast ship" oneway="0"/>
    <type id="highway.service" priority="1" speed="5.56" allow="pedestrian delivery bicycle" oneway="0"/>
    <type id="highway.stairs" priority="1" speed="1.39" allow="pedestrian" oneway="1" width="2.00"/>
    <type id="highway.step" priority="1" speed="1.39" allow="pedestrian" oneway="1" width="2.00"/>
    <type id="highway.steps" priority="1" speed="1.39" allow="pedestrian" oneway="1" width="2.00"/>
    <type id="highway.tertiary" priority="10" speed="22.22" disallow="pedestrian tram rail_urban rail rail_electric rail_fast ship" oneway="0"/>
    <type id="highway.tertiary_link" priority="5" speed="22.22" disallow="pedestrian tram rail_urban rail rail_electric rail_fast ship" oneway="0"/>
    <type id="highway.track" priority="1" speed="5.56" allow="pedestrian motorcycle moped bicycle" oneway="0"/>
    <type id="highway.trunk" priority="13" speed="27.78" disallow="pedestrian bicycle tram rail_urban rail rail_electric rail_fast ship" oneway="0"/>
    <type id="highway.trunk_link" priority="8" speed="22.22" disallow="pedestrian bicycle tram rail_urban rail rail_electric rail_fast ship" oneway="0"/>
    <type id="highway.unclassified" priority="4" speed="13.89" disallow="pedestrian tram rail_urban rail rail_electric rail_fast ship" oneway="0"/>
    <type id="highway.unsurfaced" priority="1" speed="8.33" disallow="tram rail_urban rail rail_electric rail_fast ship" oneway="0"/>
    <type id="railway.highspeed" priority="21" speed="69.44" allow="rail_fast" oneway="1"/>
    <type id="railway.light_rail" priority="19" speed="27.78" allow="rail_urban" oneway="1"/>
    <type id="railway.preserved" priority="16" speed="27.78" allow="rail" oneway="1"/>
    <type id="railway.rail" priority="20" speed="44.44" allow="rail" oneway="1"/>
    <type id="railway.subway" priority="18" speed="27.78" allow="rail_urban" oneway="1"/>
    <type id="railway.tram" priority="17" speed="13.89" allow="tram" oneway="1"/>

    <edge id=":25_0" function="internal">
        <lane id=":25_0_0" index="0" disallow="pedestrian tram rail_urban rail rail_electric rail_fast ship" speed="36.11" length="2.92" width="3.50" shape="-501.54,-521.07 -504.27,-522.11"/>
    </edge>
    <edge id=":32_0" function="internal">
        <lane id=":32_0_0" index="0" disallow="pedestrian tram rail_urban rail rail_electric rail_fast ship" speed="36.11" length="0.23" width="3.50" shape="-419.05,-565.49 -419.00,-565.71"/>
    </edge>
    <edge id=":38_0" function="internal">
        <lane id=":38_0_0" index="0" disallow="pedestrian tram rail_urban rail rail_electric rail_fast ship" speed="36.11" length="2.99" width="3.50" shape="-528.14,-533.17 -530.89,-534.34"/>
    </edge>
    <edge id=":46_0" function="internal">
        <lane id=":46_0_0" index="0" disallow="pedestrian tram rail_urban rail rail_electric rail_fast ship" speed="36.11" length="36.51" width="3.50" shape="-448.28,-412.66 -452.18,-430.50 -456.09,-448.32"/>
    </edge>
    <edge id=":46_1" function="internal">
        <lane id=":46_1_0" index="0" disallow="pedestrian tram rail_urban rail rail_electric rail_fast ship" speed="9.00" length="18.87" width="3.50" shape="-448.28,-412.66 -448.77,-415.56 -448.93,-418.49 -448.76,-420.83 -448.26,-423.13 -447.64,-424.77 -446.80,-426.32 -445.77,-427.74 -444.10,-429.40 -443.56,-429.80"/>
    </edge>
    <edge id=":46_2" function="internal">
        <lane id=":46_2_0" index="0" disallow="pedestrian tram rail_urban rail rail_electric rail_fast ship" speed="8.66" length="15.99" width="3.50" shape="-452.67,-449.08 -451.75,-445.69 -450.68,-442.97 -449.58,-440.91 -448.24,-439.00 -446.62,-437.32 -445.23,-436.24 -444.55,-435.84"/>
    </edge>
    <edge id=":46_3" function="internal">
        <lane id=":46_3_0" index="0" disallow="pedestrian tram rail_urban rail rail_electric rail_fast ship" speed="36.11" length="36.51" width="3.50" shape="-452.67,-449.08 -448.76,-431.25 -444.86,-413.41"/>
    </edge>
    <edge id=":47_0" function="internal">
        <lane id=":47_0_0" index="0" disallow="pedestrian tram rail_urban rail rail_electric rail_fast ship" speed="11.03" length="28.46" width="3.50" shape="-435.45,-355.00 -436.35,-358.16 -437.15,-360.20 -438.15,-362.16 -439.38,-363.97 -440.09,-364.81 -440.86,-365.59 -441.69,-366.30 -442.59,-366.93 -443.54,-367.48 -444.53,-367.95 -445.56,-368.32 -446.62,-368.61 -448.78,-368.94 -450.97,-368.99 -453.16,-368.80 -456.35,-368.17"/>
    </edge>
    <edge id=":47_1" function="internal">
        <lane id=":47_1_0" index="0" disallow="pedestrian tram rail_urban rail rail_electric rail_fast ship" speed="36.11" length="38.30" width="3.50" shape="-435.45,-355.00 -443.18,-389.34 -443.85,-392.37"/>
    </edge>
    <edge id=":47_2" function="internal">
        <lane id=":47_2_0" index="0" disallow="pedestrian tram rail_urban rail rail_electric rail_fast ship" speed="36.11" length="38.23" width="3.50" shape="-440.43,-393.12 -439.77,-390.09 -432.05,-355.82"/>
    </edge>
    <edge id=":47_3" function="internal">
        <lane id=":47_3_0" index="0" disallow="pedestrian tram rail_urban rail rail_electric rail_fast ship" speed="12.27" length="33.61" width="3.50" shape="-440.43,-393.12 -439.98,-390.64 -439.73,-388.12 -439.73,-385.55 -440.03,-382.96 -440.69,-380.44 -441.19,-379.17 -441.78,-377.97 -442.46,-376.82 -443.25,-375.74 -444.14,-374.70 -446.05,-372.94 -448.19,-371.45 -450.45,-370.24 -452.81,-369.26 -456.35,-368.17"/>
    </edge>
    <edge id=":47_4" function="internal">
        <lane id=":47_4_0" index="0" disallow="pedestrian tram rail_urban rail rail_electric rail_fast ship" speed="11.27" length="28.18" width="3.50" shape="-457.24,-371.56 -454.13,-372.51 -452.13,-373.34 -450.21,-374.36 -448.43,-375.59 -446.84,-377.06 -446.13,-377.88 -445.49,-378.76 -444.93,-379.68 -444.45,-380.66 -444.06,-381.66 -443.50,-383.76 -443.25,-385.91 -443.25,-388.08 -443.46,-390.24 -443.85,-392.37"/>
    </edge>
    <edge id=":47_5" function="internal">
        <lane id=":47_5_0" index="0" disallow="pedestrian tram rail_urban rail rail_electric rail_fast ship" speed="12.04" length="34.13" width="3.50" shape="-457.24,-371.56 -453.51,-372.29 -450.92,-372.52 -448.29,-372.46 -445.70,-372.07 -444.36,-371.71 -443.09,-371.25 -441.85,-370.68 -440.67,-369.99 -439.56,-369.21 -438.52,-368.33 -437.57,-367.37 -436.69,-366.32 -435.22,-364.16 -434.03,-361.84 -433.08,-359.44 -432.05,-355.82"/>
    </edge>
    <edge id=":48_0" function="internal">
        <lane id=":48_0_0" index="0" disallow="pedestrian tram rail_urban rail rail_electric rail_fast ship" speed="11.13" length="28.40" width="3.50" shape="-458.99,-461.54 -459.86,-464.70 -460.65,-466.74 -461.64,-468.69 -462.87,-470.49 -463.58,-471.32 -464.35,-472.10 -465.18,-472.80 -466.08,-473.43 -467.02,-473.98 -468.01,-474.44 -469.03,-474.82 -471.16,-475.33 -473.33,-475.55 -475.52,-475.51 -477.69,-475.28 -479.84,-474.88"/>
    </edge>
    <edge id=":48_1" function="internal">
        <lane id=":48_1_0" index="0" disallow="pedestrian tram rail_urban rail rail_electric rail_fast ship" speed="36.11" length="34.67" width="3.50" shape="-458.99,-461.54 -464.24,-486.18 -465.78,-494.44 -465.92,-495.51"/>
    </edge>
    <edge id=":48_2" function="internal">
        <lane id=":48_2_0" index="0" disallow="pedestrian tram rail_urban rail rail_electric rail_fast ship" speed="36.11" length="34.29" width="3.50" shape="-462.45,-495.91 -462.31,-494.92 -460.79,-486.77 -455.58,-462.32"/>
    </edge>
    <edge id=":48_3" function="internal">
        <lane id=":48_3_0" index="0" disallow="pedestrian tram rail_urban rail rail_electric rail_fast ship" speed="12.04" length="30.56" width="3.50" shape="-462.44,-495.91 -462.28,-493.33 -462.39,-490.79 -462.83,-488.29 -463.19,-487.07 -463.65,-485.88 -464.20,-484.73 -464.85,-483.64 -465.59,-482.61 -466.41,-481.64 -468.27,-479.91 -470.36,-478.46 -472.60,-477.26 -474.95,-476.28 -478.60,-475.17 -479.84,-474.88"/>
    </edge>
    <edge id=":48_4" function="internal">
        <lane id=":48_4_0" index="0" disallow="pedestrian tram rail_urban rail rail_electric rail_fast ship" speed="10.98" length="25.36" width="3.50" shape="-480.59,-478.29 -479.54,-478.54 -476.33,-479.51 -474.33,-480.33 -472.44,-481.33 -470.70,-482.52 -469.15,-483.93 -468.51,-484.68 -467.91,-485.49 -467.38,-486.36 -466.93,-487.27 -466.56,-488.21 -466.27,-489.16 -465.88,-491.23 -465.78,-493.34 -465.92,-495.51"/>
    </edge>
    <edge id=":48_5" function="internal">
        <lane id=":48_5_0" index="0" disallow="pedestrian tram rail_urban rail rail_electric rail_fast ship" speed="12.14" length="33.96" width="3.50" shape="-480.59,-478.29 -478.11,-478.76 -475.57,-479.03 -472.99,-479.07 -470.38,-478.81 -467.82,-478.20 -466.53,-477.72 -465.31,-477.15 -464.13,-476.47 -463.03,-475.69 -461.99,-474.81 -461.04,-473.86 -460.16,-472.82 -458.69,-470.67 -457.51,-468.35 -456.58,-465.94 -455.58,-462.32"/>
    </edge>
    <edge id=":49_0" function="internal">
        <lane id=":49_0_0" index="0" disallow="pedestrian tram rail_urban rail rail_electric rail_fast ship" speed="9.51" length="25.04" width="3.50" shape="-445.50,-507.03 -446.72,-507.23 -450.43,-507.62 -452.83,-507.65 -455.21,-507.43 -456.31,-507.21 -457.38,-506.89 -458.38,-506.48 -459.30,-505.97 -460.11,-505.34 -460.81,-504.61 -461.39,-503.78 -461.85,-502.85 -462.19,-501.84 -462.43,-500.77 -462.56,-499.64 -462.61,-498.51 -462.47,-496.12"/>
    </edge>
    <edge id=":49_1" function="internal">
        <lane id=":49_1_0" index="0" disallow="pedestrian tram rail_urban rail rail_electric rail_fast ship" speed="36.11" length="35.78" width="3.50" shape="-445.50,-507.03 -467.82,-511.09 -477.68,-513.15 -480.60,-513.93"/>
    </edge>
    <edge id=":49_2" function="internal">
        <lane id=":49_2_0" index="0" disallow="pedestrian tram rail_urban rail rail_electric rail_fast ship" speed="36.11" length="35.06" width="3.50" shape="-478.47,-520.59 -454.71,-513.18 -446.40,-510.81 -444.91,-510.48"/>
    </edge>
    <edge id=":49_3" function="internal">
        <lane id=":49_3_0" index="0" disallow="pedestrian tram rail_urban rail rail_electric rail_fast ship" speed="13.74" length="28.92" width="3.50" shape="-479.52,-517.26 -476.22,-515.99 -474.06,-514.90 -472.02,-513.60 -470.11,-512.09 -468.38,-510.36 -466.86,-508.45 -465.56,-506.39 -464.50,-504.20 -463.67,-501.94 -463.05,-499.61 -462.47,-496.12"/>
    </edge>
    <edge id=":49_4" function="internal">
        <lane id=":49_4_0" index="0" disallow="pedestrian tram rail_urban rail rail_electric rail_fast ship" speed="12.71" length="24.95" width="3.50" shape="-465.94,-495.68 -466.45,-498.80 -466.99,-500.81 -467.70,-502.76 -468.61,-504.62 -469.71,-506.38 -471.00,-508.01 -472.47,-509.47 -474.10,-510.76 -475.85,-511.88 -477.70,-512.82 -480.60,-513.93"/>
    </edge>
    <edge id=":49_5" function="internal">
        <lane id=":49_5_0" index="0" disallow="pedestrian tram rail_urban rail rail_electric rail_fast ship" speed="10.70" length="31.80" width="3.50" shape="-465.94,-495.68 -466.12,-498.61 -466.07,-500.05 -465.92,-501.49 -465.64,-502.91 -465.20,-504.28 -464.60,-505.59 -463.82,-506.80 -462.86,-507.88 -461.74,-508.79 -460.51,-509.54 -459.19,-510.12 -457.81,-510.56 -456.40,-510.87 -453.53,-511.17 -450.65,-511.15 -446.34,-510.71 -444.91,-510.48"/>
    </edge>
    <edge id=":50_0" function="internal">
        <lane id=":50_0_0" index="0" disallow="pedestrian tram rail_urban rail rail_electric rail_fast ship" speed="36.11" length="35.13" width="3.50" shape="-410.69,-500.81 -416.80,-501.43 -423.83,-502.58 -443.27,-506.63 -445.25,-506.99"/>
    </edge>
    <edge id=":50_1" function="internal">
        <lane id=":50_1_0" index="0" disallow="pedestrian tram rail_urban rail rail_electric rail_fast ship" speed="8.97" length="19.91" width="3.50" shape="-410.46,-504.30 -414.08,-504.72 -417.03,-505.38 -419.31,-506.18 -421.47,-507.26 -422.96,-508.29 -424.30,-509.50 -425.45,-510.91 -426.38,-512.46 -426.83,-513.54"/>
    </edge>
    <edge id=":50_2" function="internal">
        <lane id=":50_2_0" index="0" disallow="pedestrian tram rail_urban rail rail_electric rail_fast ship" speed="8.06" length="14.00" width="3.50" shape="-444.68,-510.44 -442.38,-510.18 -440.07,-510.24 -438.36,-510.53 -436.72,-511.07 -435.18,-511.86 -433.77,-512.87 -432.53,-514.06 -432.08,-514.64"/>
    </edge>
    <edge id=":50_3" function="internal">
        <lane id=":50_3_0" index="0" disallow="pedestrian tram rail_urban rail rail_electric rail_fast ship" speed="36.11" length="34.55" width="3.50" shape="-444.68,-510.44 -435.56,-509.62 -410.23,-507.79"/>
    </edge>
    <edge id=":51_0" function="internal">
        <lane id=":51_0_0" index="0" disallow="pedestrian tram rail_urban rail rail_electric rail_fast ship" speed="36.11" length="7.86" width="3.50" shape="-518.13,-533.59 -514.14,-532.38 -510.60,-531.33"/>
        <lane id=":51_0_1" index="1" disallow="pedestrian tram rail_urban rail rail_electric rail_fast ship" speed="36.11" length="7.95" width="3.50" shape="-518.56,-532.55 -513.01,-529.83 -511.41,-529.08"/>
    </edge>

    <edge id="8713" from="51" to="49" priority="3" type="highway.residential" spreadType="center" length="33.95" shape="-514.64,-531.74 -461.63,-509.91">
        <lane id="8713_0" index="0" disallow="pedestrian tram rail_urban rail rail_electric rail_fast ship" speed="36.11" length="33.95" width="3.50" customShape="1" shape="-510.46,-531.72 -491.93,-525.05 -478.40,-520.57"/>
        <lane id="8713_1" index="1" disallow="pedestrian tram rail_urban rail rail_electric rail_fast ship" speed="36.11" length="34.04" width="3.50" customShape="1" shape="-511.65,-528.42 -493.06,-521.74 -479.50,-517.25"/>
    </edge>
    <edge id="8715" from="49" to="25" priority="3" type="highway.residential" spreadType="center" length="22.13" shape="-463.77,-505.12 -502.91,-521.56">
        <lane id="8715_0" index="0" disallow="pedestrian tram rail_urban rail rail_electric rail_fast ship" speed="36.11" length="22.13" width="3.50" customShape="1" shape="-480.60,-513.93 -494.23,-518.44 -501.54,-521.07"/>
    </edge>
    <edge id="8717" from="48" to="49" priority="3" type="highway.residential" spreadType="center" length="0.22" shape="-468.96,-478.32 -464.87,-507.11">
        <lane id="8717_0" index="0" disallow="pedestrian tram rail_urban rail rail_electric rail_fast ship" speed="36.11" length="0.22" width="3.50" customShape="1" shape="-465.92,-495.51 -465.95,-495.73"/>
    </edge>
    <edge id="8718" from="49" to="48" priority="3" type="highway.residential" spreadType="center" length="0.24" shape="-461.42,-506.62 -465.49,-477.83">
        <lane id="8718_0" index="0" disallow="pedestrian tram rail_urban rail rail_electric rail_fast ship" speed="36.11" length="0.24" width="3.50" customShape="1" shape="-462.47,-496.12 -462.45,-495.99 -462.44,-495.88"/>
    </edge>
    <edge id="8720" from="41" to="47" priority="3" type="highway.residential" spreadType="center" length="70.00" shape="-525.70,-363.75 -444.41,-374.41">
        <lane id="8720_0" index="0" disallow="pedestrian tram rail_urban rail rail_electric rail_fast ship" speed="36.11" length="70.00" width="3.50" customShape="1" shape="-525.70,-363.75 -524.44,-363.39 -519.58,-362.02 -516.12,-361.31 -513.11,-361.01 -509.07,-361.04 -503.02,-361.41 -496.51,-362.19 -489.54,-363.41 -481.17,-365.27 -457.21,-371.57"/>
    </edge>
    <edge id="8721" from="47" to="33" priority="3" type="highway.residential" spreadType="center" length="69.99" shape="-443.95,-370.94 -524.89,-359.87">
        <lane id="8721_0" index="0" disallow="pedestrian tram rail_urban rail rail_electric rail_fast ship" speed="36.11" length="69.99" width="3.50" customShape="1" shape="-456.35,-368.17 -480.32,-361.88 -488.76,-359.99 -495.81,-358.76 -502.41,-357.95 -508.55,-357.55 -512.70,-357.50 -515.90,-357.75 -519.54,-358.42 -524.50,-359.76 -524.89,-359.87"/>
    </edge>
    <edge id="8723" from="16" to="48" priority="3" type="highway.residential" spreadType="center" length="70.00" shape="-548.92,-463.13 -467.54,-479.79">
        <lane id="8723_0" index="0" disallow="pedestrian tram rail_urban rail rail_electric rail_fast ship" speed="36.11" length="70.00" width="3.50" customShape="1" shape="-548.92,-463.13 -480.58,-478.30"/>
    </edge>
    <edge id="8724" from="48" to="14" priority="3" type="highway.residential" spreadType="center" length="69.99" shape="-466.84,-476.36 -548.17,-459.71">
        <lane id="8724_0" index="0" disallow="pedestrian tram rail_urban rail rail_electric rail_fast ship" speed="36.11" length="69.99" width="3.50" customShape="1" shape="-479.84,-474.88 -548.17,-459.71"/>
    </edge>
    <edge id="8752" from="46" to="5" priority="3" type="highway.residential" spreadType="center" length="81.85">
        <lane id="8752_0" index="0" disallow="pedestrian tram rail_urban rail rail_electric rail_fast ship" speed="36.11" length="81.85" width="3.50" customShape="1" shape="-443.97,-432.30 -412.45,-437.44 -385.08,-441.22 -362.97,-443.99"/>
    </edge>
    <edge id="8769" from="46" to="48" priority="3" type="highway.residential" spreadType="center" length="13.57" shape="-448.44,-430.84 -468.85,-477.42">
        <lane id="8769_0" index="0" disallow="pedestrian tram rail_urban rail rail_electric rail_fast ship" speed="36.11" length="13.57" width="3.50" customShape="1" shape="-456.09,-448.32 -457.54,-454.93 -459.00,-461.57"/>
    </edge>
    <edge id="8770" from="48" to="46" priority="3" type="highway.residential" spreadType="center" length="13.57" shape="-465.65,-478.83 -445.23,-432.24">
        <lane id="8770_0" index="0" disallow="pedestrian tram rail_urban rail rail_electric rail_fast ship" speed="36.11" length="13.57" width="3.50" customShape="1" shape="-455.58,-462.32 -454.12,-455.68 -452.67,-449.07"/>
    </edge>
    <edge id="8772" from="47" to="46" priority="3" type="highway.residential" spreadType="center" length="20.79" shape="-445.97,-372.54 -448.58,-431.46">
        <lane id="8772_0" index="0" disallow="pedestrian tram rail_urban rail rail_electric rail_fast ship" speed="36.11" length="20.79" width="3.50" customShape="1" shape="-443.85,-392.37 -446.06,-402.52 -448.28,-412.68"/>
    </edge>
    <edge id="8773" from="46" to="47" priority="3" type="highway.residential" spreadType="center" length="20.79" shape="-445.09,-431.62 -442.47,-372.70">
        <lane id="8773_0" index="0" disallow="pedestrian tram rail_urban rail rail_electric rail_fast ship" speed="36.11" length="20.79" width="3.50" customShape="1" shape="-444.86,-413.41 -442.64,-403.27 -440.42,-393.10"/>
    </edge>
    <edge id="8775" from="50" to="30" priority="3" type="highway.residential" spreadType="center" length="70.00" shape="-427.66,-512.17 -340.51,-511.91">
        <lane id="8775_0" index="0" disallow="pedestrian tram rail_urban rail rail_electric rail_fast ship" speed="36.11" length="70.00" width="3.50" customShape="1" shape="-410.23,-507.79 -408.25,-507.66 -399.30,-507.26 -389.34,-507.23 -379.39,-507.56 -368.96,-508.30 -357.07,-509.53 -345.23,-511.13 -340.51,-511.91"/>
    </edge>
    <edge id="8777" from="37" to="50" priority="3" type="highway.residential" spreadType="center" length="69.58" shape="-340.87,-506.53 -427.79,-506.93">
        <lane id="8777_0" index="0" disallow="pedestrian tram rail_urban rail rail_electric rail_fast ship" speed="36.11" length="70.42" width="3.50" customShape="1" shape="-340.59,-504.81 -344.24,-504.20 -356.34,-502.56 -368.49,-501.31 -379.16,-500.56 -389.35,-500.23 -399.55,-500.26 -408.70,-500.67 -410.74,-500.81"/>
        <lane id="8777_1" index="1" disallow="pedestrian tram rail_urban rail rail_electric rail_fast ship" speed="36.11" length="69.58" width="3.50" customShape="1" shape="-341.16,-508.26 -344.72,-507.67 -356.68,-506.05 -368.69,-504.81 -379.24,-504.06 -389.32,-503.73 -399.40,-503.76 -408.46,-504.17 -410.47,-504.30"/>
    </edge>
    <edge id="8825" from="45" to="51" priority="3" type="highway.residential" spreadType="center" length="80.59">
        <lane id="8825_0" index="0" disallow="pedestrian tram rail_urban rail rail_electric rail_fast ship" speed="36.11" length="80.59" width="3.50" customShape="1" shape="-592.40,-564.85 -564.18,-552.38 -544.40,-543.78 -518.41,-532.91"/>
    </edge>
    <edge id="8826" from="38" to="42" priority="3" type="highway.residential" spreadType="center" length="68.50">
        <lane id="8826_0" index="0" disallow="pedestrian tram rail_urban rail rail_electric rail_fast ship" speed="36.11" length="68.50" width="3.50" customShape="1" shape="-530.89,-534.34 -545.73,-540.54 -565.52,-549.14 -593.73,-561.61"/>
    </edge>
    <edge id="8892" from="44" to="47" priority="3" type="highway.residential" spreadType="center" length="70.03" shape="-419.68,-286.80 -445.90,-372.19">
        <lane id="8892_0" index="0" disallow="pedestrian tram rail_urban rail rail_electric rail_fast ship" speed="36.11" length="70.03" width="3.50" customShape="1" shape="-419.68,-286.80 -425.82,-313.34 -435.46,-355.03"/>
    </edge>
    <edge id="8893" from="47" to="34" priority="3" type="highway.residential" spreadType="center" length="70.01" shape="-442.56,-373.22 -416.28,-287.61">
        <lane id="8893_0" index="0" disallow="pedestrian tram rail_urban rail rail_electric rail_fast ship" speed="36.11" length="70.01" width="3.50" customShape="1" shape="-432.05,-355.82 -422.41,-314.13 -416.28,-287.61"/>
    </edge>
    <edge id="8992" from="50" to="32" priority="3" type="highway.residential" spreadType="center" length="52.44">
        <lane id="8992_0" index="0" disallow="pedestrian tram rail_urban rail rail_electric rail_fast ship" speed="36.11" length="52.44" width="3.50" customShape="1" shape="-429.74,-514.15 -423.14,-545.84 -419.05,-565.49"/>
    </edge>
    <edge id="8997" from="49" to="50" priority="3" type="highway.residential" spreadType="center" length="0.24" shape="-463.34,-508.50 -427.72,-512.17">
        <lane id="8997_0" index="0" disallow="pedestrian tram rail_urban rail rail_electric rail_fast ship" speed="36.11" length="0.24" width="3.50" customShape="1" shape="-444.91,-510.48 -444.79,-510.46 -444.67,-510.44"/>
    </edge>
    <edge id="8998" from="50" to="49" priority="3" type="highway.residential" spreadType="center" length="0.27" shape="-427.37,-508.69 -462.98,-505.02">
        <lane id="8998_0" index="0" disallow="pedestrian tram rail_urban rail rail_electric rail_fast ship" speed="36.11" length="0.27" width="3.50" customShape="1" shape="-445.25,-506.99 -445.39,-507.01 -445.52,-507.03"/>
    </edge>
    <edge id="9610" from="32" to="40" priority="3" type="highway.residential" spreadType="center" length="25.56">
        <lane id="9610_0" index="0" disallow="pedestrian tram rail_urban rail rail_electric rail_fast ship" speed="36.11" length="25.56" width="3.50" customShape="1" shape="-419.00,-565.71 -418.08,-571.17 -416.42,-585.97 -415.56,-591.03"/>
    </edge>
    <edge id="9773" from="25" to="38" priority="3" type="highway.residential" spreadType="center" length="26.32">
        <lane id="9773_0" index="0" disallow="pedestrian tram rail_urban rail rail_electric rail_fast ship" speed="36.11" length="26.32" width="3.50" customShape="1" shape="-504.27,-522.11 -507.77,-523.52 -514.39,-526.62 -524.72,-531.68 -528.14,-533.17"/>
    </edge>

    <junction id="14" type="dead_end" x="-548.17" y="-459.71" incLanes="8724_0" intLanes="" shape="-547.79,-458.00 -548.55,-461.42" rightOfWay="edgePriority"/>
    <junction id="16" type="dead_end" x="-548.92" y="-463.13" incLanes="" intLanes="" shape="-548.54,-461.42 -549.30,-464.83" rightOfWay="edgePriority"/>
    <junction id="25" type="priority" x="-502.91" y="-521.56" incLanes="8715_0" intLanes=":25_0_0" shape="-502.13,-519.42 -500.94,-522.71 -503.62,-523.73 -504.93,-520.49" rightOfWay="edgePriority">
        <request index="0" response="0" foes="0" cont="0"/>
    </junction>
    <junction id="30" type="dead_end" x="-340.51" y="-511.91" incLanes="8775_0" intLanes="" shape="-340.79,-513.64 -340.22,-510.19" rightOfWay="edgePriority"/>
    <junction id="32" type="priority" x="-419.02" y="-565.60" incLanes="8992_0" intLanes=":32_0_0" shape="-417.28,-565.42 -420.73,-566.01 -420.76,-565.85 -417.33,-565.13" rightOfWay="edgePriority">
        <request index="0" response="0" foes="0" cont="0"/>
    </junction>
    <junction id="33" type="dead_end" x="-524.89" y="-359.87" incLanes="8721_0" intLanes="" shape="-525.38,-358.19 -524.41,-361.55" rightOfWay="edgePriority"/>
    <junction id="34" type="dead_end" x="-416.28" y="-287.61" incLanes="8893_0" intLanes="" shape="-414.57,-288.01 -417.98,-287.22" rightOfWay="edgePriority"/>
    <junction id="37" type="dead_end" x="-340.87" y="-506.53" incLanes="" intLanes="" shape="-341.44,-509.98 -340.30,-503.08" rightOfWay="edgePriority"/>
    <junction id="38" type="priority" x="-529.52" y="-533.76" incLanes="9773_0" intLanes=":38_0_0" shape="-528.84,-531.56 -527.45,-534.77 -530.22,-535.95 -531.57,-532.72" rightOfWay="edgePriority">
        <request index="0" response="0" foes="0" cont="0"/>
    </junction>
    <junction id="40" type="dead_end" x="-415.56" y="-591.03" incLanes="9610_0" intLanes="" shape="-417.29,-591.32 -413.84,-590.73" rightOfWay="edgePriority"/>
    <junction id="41" type="dead_end" x="-525.70" y="-363.75" incLanes="" intLanes="" shape="-526.17,-362.06 -525.23,-365.43" rightOfWay="edgePriority"/>
    <junction id="42" type="dead_end" x="-593.73" y="-561.61" incLanes="8826_0" intLanes="" shape="-594.44,-560.01 -593.03,-563.21" rightOfWay="edgePriority"/>
    <junction id="44" type="dead_end" x="-419.68" y="-286.80" incLanes="" intLanes="" shape="-417.98,-287.20 -421.38,-286.41" rightOfWay="edgePriority"/>
    <junction id="45" type="dead_end" x="-592.40" y="-564.85" incLanes="" intLanes="" shape="-593.11,-563.25 -591.70,-566.45" rightOfWay="edgePriority"/>