<routes>
	<vehicle depart="0.1" departLane="0" departPos="26.810761209006447" departSpeed="6.0935641" id="368" type="bicycle">
		<route edges="2650 2061"/>
	</vehicle>
	<vehicle depart="0.1" departLane="0" departPos="31.436871083357225" departSpeed="0.0" id="39" type="passenger">
		<route edges="2062 2649"/>
	</vehicle>
	<vehicle depart="0.1" departLane="0" departPos="12.73597843037531" departSpeed="3.4293517" id="315" type="passenger">
		<route edges=":30_6 2065"/>
	</vehicle>
	<vehicle depart="0.1" departLane="0" departPos="59.285574374198234" departSpeed="3.975213" id="316" type="passenger">
		<route edges="2652 2065"/>
	</vehicle>
	<vehicle depart="0.1" departLane="0" departPos="46.21786934124144" departSpeed="2.4444908" id="317" type="passenger">
		<route edges="2652 2065"/>
	</vehicle>
	<vehicle depart="0.1" departLane="0" departPos="23.98814983763859" departSpeed="0.0" id="319" type="passenger">
		<route edges="2062 2649"/>
	</vehicle>
	<vehicle depart="0.1" departLane="0" departPos="2.5" departSpeed="7.7199696" id="363" type="passenger">
		<route edges="2061 2441"/>
	</vehicle>
	<vehicle depart="0.1" departLane="0" departPos="18.642114413352516" departSpeed="8.3115427" id="366" type="passenger">
		<route edges=":30_2 2065"/>
	</vehicle>
	<vehicle depart="0.1" departLane="0" departPos="62.24373884302535" departSpeed="6.3342366" id="367" type="passenger">
		<route edges="2650 2061"/>
	</vehicle>
	<vehicle depart="0.1" departLane="0" departPos="39.46173306839743" departSpeed="1.4809572" id="333" type="motorcycle">
		<route edges="2652 2065"/>
	</vehicle>
</routes>
