<routes>
	<vehicle depart="0.1" departLane="0" departPos="45.53908773707606" departSpeed="8.3099252" id="358" type="bus">
		<route edges="21044 21047 23387"/>
	</vehicle>
	<vehicle depart="0.1" departLane="0" departPos="38.872538244623705" departSpeed="0.0" id="38" type="passenger">
		<route edges="21591 23387"/>
	</vehicle>
	<vehicle depart="0.1" departLane="0" departPos="25.77496123559997" departSpeed="0.0" id="39" type="passenger">
		<route edges="21049 21046"/>
	</vehicle>
	<vehicle depart="0.1" departLane="0" departPos="2.5" departSpeed="16.645059" id="351" type="passenger">
		<route edges="23387 21083"/>
	</vehicle>
	<vehicle depart="0.1" departLane="0" departPos="15.334673604443504" departSpeed="17.000705" id="352" type="passenger">
		<route edges="21047 23387 21083"/>
	</vehicle>
	<vehicle depart="0.1" departLane="0" departPos="19.380492473333696" departSpeed="12.732997" id="355" type="passenger">
		<route edges=":40_5 21047 23387"/>
	</vehicle>
	<vehicle depart="0.1" departLane="0" departPos="36.07296905952012" departSpeed="14.405025" id="354" type="truck">
		<route edges=":40_5 21047 21592"/>
	</vehicle>
</routes>
