<routes>
	<vehicle depart="0.1" departLane="0" departPos="16.272677133235945" departSpeed="3.4865085" id="315" type="bicycle">
		<route edges="13089"/>
	</vehicle>
	<vehicle depart="0.1" departLane="0" departPos="17.62100288978709" departSpeed="5.0251296" id="317" type="bicycle">
		<route edges=":5_0 13089"/>
	</vehicle>
	<vehicle depart="0.1" departLane="0" departPos="35.32307157471458" departSpeed="10.110755" id="318" type="passenger">
		<route edges=":5_0 13089"/>
	</vehicle>
	<vehicle depart="0.1" departLane="0" departPos="11.251191502894379" departSpeed="8.0068959" id="319" type="passenger">
		<route edges=":5_0 13089"/>
	</vehicle>
	<vehicle depart="0.1" departLane="0" departPos="58.72620694964276" departSpeed="12.760424" id="321" type="passenger">
		<route edges="13130 13089"/>
	</vehicle>
</routes>
