<?xml version="1.0" encoding="UTF-8"?>

<!-- generated on Fri Dec 18 16:00:19 2020 by Eclipse SUMO netconvert Version 1.8.0
<configuration xmlns:xsi="http://www.w3.org/2001/XMLSchema-instance" xsi:noNamespaceSchemaLocation="http://sumo.dlr.de/xsd/netconvertConfiguration.xsd">

    <input>
        <node-files value="./converted_scenarios/NGSIM/Lankershim/USA_Lanker-2_11_I-1-1/nodes.net.xml"/>
        <edge-files value="./converted_scenarios/NGSIM/Lankershim/USA_Lanker-2_11_I-1-1/edges.net.xml"/>
        <connection-files value="./converted_scenarios/NGSIM/Lankershim/USA_Lanker-2_11_I-1-1/_connections.net.xml"/>
        <tllogic-files value="./converted_scenarios/NGSIM/Lankershim/USA_Lanker-2_11_I-1-1/_tll.net.xml"/>
    </input>

    <output>
        <output-file value="./converted_scenarios/NGSIM/Lankershim/USA_Lanker-2_11_I-1-1/USA_Lanker-2_11_I-1-1.net.xml"/>
    </output>

    <processing>
        <plain.extend-edge-shape value="true"/>
        <geometry.remove.keep-edges.explicit value="true"/>
        <geometry.avoid-overlap value="true"/>
        <offset.disable-normalization value="true"/>
    </processing>

    <junctions>
        <no-turnarounds value="true"/>
        <junctions.internal-link-detail value="20"/>
    </junctions>

    <report>
        <aggregate-warnings value="5"/>
    </report>

    <random_number>
        <seed value="1234"/>
    </random_number>

</configuration>
-->

<net version="1.6" junctionCornerDetail="5" junctionLinkDetail="20" limitTurnSpeed="5.50" xmlns:xsi="http://www.w3.org/2001/XMLSchema-instance" xsi:noNamespaceSchemaLocation="http://sumo.dlr.de/xsd/net_file.xsd">

    <location netOffset="0.00,0.00" convBoundary="-73.45,-143.60,45.19,42.95" origBoundary="-76.27,-145.79,45.19,45.57" projParameter="!"/>

    <edge id=":11_0" function="internal">
        <lane id=":11_0_0" index="0" disallow="rail_fast" speed="36.11" length="0.26" width="3.31" shape="-41.04,-55.65 -41.27,-55.53"/>
        <lane id=":11_0_1" index="1" disallow="rail_fast" speed="36.11" length="0.26" width="3.11" shape="-39.57,-52.78 -39.80,-52.67"/>
    </edge>
    <edge id=":12_0" function="internal">
        <lane id=":12_0_0" index="0" disallow="rail_fast" speed="36.11" length="3.06" width="3.50" shape="-21.90,-65.61 -19.16,-67.00"/>
        <lane id=":12_0_1" index="1" disallow="rail_fast" speed="36.11" length="3.06" width="3.31" shape="-20.38,-62.57 -17.66,-63.94"/>
    </edge>
    <edge id=":13_0" function="internal">
        <lane id=":13_0_0" index="0" disallow="bus truck rail_fast" speed="11.02" length="10.30" width="3.87" shape="-16.49,-75.97 -15.83,-75.80 -15.23,-75.66 -14.67,-75.54 -14.16,-75.44 -13.69,-75.36 -13.25,-75.31 -12.84,-75.28 -12.45,-75.27 -12.06,-75.29 -11.69,-75.33 -11.31,-75.40 -10.92,-75.49 -10.53,-75.62 -10.11,-75.77 -9.67,-75.95 -9.19,-76.15 -8.67,-76.39 -8.11,-76.66 -7.50,-76.96"/>
        <lane id=":13_0_1" index="1" disallow="bus truck rail_fast" speed="12.20" length="10.30" width="3.51" shape="-16.61,-72.41 -15.82,-72.23 -15.09,-72.07 -14.43,-71.93 -13.82,-71.81 -13.26,-71.73 -12.73,-71.66 -12.24,-71.63 -11.76,-71.62 -11.31,-71.64 -10.86,-71.70 -10.41,-71.78 -9.95,-71.89 -9.48,-72.04 -8.98,-72.22 -8.45,-72.43 -7.88,-72.68 -7.27,-72.96 -6.60,-73.28 -5.86,-73.64"/>
    </edge>
    <edge id=":13_2" function="internal">
        <lane id=":13_2_0" index="0" disallow="bus truck rail_fast" speed="36.11" length="11.23" width="3.51" shape="-15.83,-68.39 -5.86,-73.64"/>
        <lane id=":13_2_1" index="1" disallow="bus truck rail_fast" speed="36.11" length="11.23" width="3.38" shape="-14.09,-65.08 -13.40,-65.56 -12.78,-65.99 -12.22,-66.38 -11.71,-66.72 -11.23,-67.03 -10.79,-67.30 -10.38,-67.55 -9.97,-67.78 -9.58,-68.00 -9.19,-68.20 -8.79,-68.40 -8.37,-68.61 -7.93,-68.82 -7.46,-69.04 -6.95,-69.28 -6.39,-69.55 -5.77,-69.84 -5.09,-70.17 -4.34,-70.54"/>
    </edge>
    <edge id=":13_4" function="internal">
        <lane id=":13_4_0" index="0" disallow="rail_fast" speed="36.11" length="13.86" width="3.51" shape="-18.27,-67.44 -5.86,-73.64"/>
        <lane id=":13_4_1" index="1" disallow="rail_fast" speed="36.11" length="13.86" width="3.38" shape="-16.75,-64.39 -4.34,-70.54"/>
    </edge>
    <edge id=":15_0" function="internal">
        <lane id=":15_0_0" index="0" disallow="rail_fast" speed="36.11" length="19.07" width="2.82" shape="-40.73,-54.78 -49.17,-71.88"/>
        <lane id=":15_0_1" index="1" disallow="rail_fast" speed="36.11" length="19.07" width="2.97" shape="-37.95,-56.21 -46.34,-73.33"/>
        <lane id=":15_0_2" index="2" disallow="rail_fast" speed="36.11" length="19.07" width="2.96" shape="-35.26,-57.59 -43.65,-74.71"/>
    </edge>
    <edge id=":15_3" function="internal">
        <lane id=":15_3_0" index="0" disallow="bus truck rail_fast" speed="13.68" length="23.17" width="2.96" shape="-28.84,-57.83 -29.59,-57.99 -30.35,-58.23 -31.11,-58.56 -31.88,-58.96 -32.64,-59.44 -33.41,-60.01 -34.18,-60.66 -34.96,-61.38 -35.74,-62.19 -36.51,-63.08 -37.30,-64.05 -38.08,-65.10 -38.87,-66.23 -39.66,-67.44 -40.45,-68.73 -41.25,-70.10 -42.05,-71.56 -42.85,-73.09 -43.65,-74.71"/>
    </edge>
    <edge id=":15_4" function="internal">
        <lane id=":15_4_0" index="0" disallow="bus truck rail_fast" speed="36.11" length="4.30" width="2.82" shape="-47.29,-68.01 -49.17,-71.88"/>
    </edge>
    <edge id=":18_0" function="internal">
        <lane id=":18_0_0" index="0" disallow="rail_fast" speed="14.45" length="8.28" width="3.25" shape="6.93,-64.62 6.38,-64.35 5.90,-64.11 5.45,-63.88 5.05,-63.67 4.69,-63.47 4.36,-63.27 4.06,-63.08 3.78,-62.89 3.52,-62.68 3.27,-62.47 3.03,-62.25 2.79,-62.00 2.55,-61.74 2.30,-61.44 2.04,-61.12 1.77,-60.76 1.47,-60.37 1.14,-59.93 0.79,-59.44"/>
        <lane id=":18_0_1" index="1" disallow="rail_fast" speed="36.11" length="8.28" width="3.60" shape="6.93,-64.62 -0.31,-61.05"/>
        <lane id=":18_0_2" index="2" disallow="rail_fast" speed="36.11" length="8.28" width="3.67" shape="5.34,-67.89 -2.36,-64.09"/>
    </edge>
    <edge id=":19_0" function="internal">
        <lane id=":19_0_0" index="0" disallow="rail_fast" speed="9.74" length="3.41" width="3.19" shape="-0.55,-57.62 -0.71,-57.40 -0.87,-57.21 -1.01,-57.05 -1.15,-56.90 -1.28,-56.77 -1.41,-56.66 -1.54,-56.57 -1.66,-56.48 -1.79,-56.41 -1.93,-56.34 -2.06,-56.28 -2.21,-56.21 -2.36,-56.15 -2.53,-56.09 -2.71,-56.02 -2.90,-55.94 -3.11,-55.85 -3.34,-55.75 -3.59,-55.63"/>
        <lane id=":19_0_1" index="1" disallow="rail_fast" speed="36.11" length="3.41" width="3.52" shape="-2.03,-60.20 -5.06,-58.69"/>
        <lane id=":19_0_2" index="2" disallow="rail_fast" speed="36.11" length="3.41" width="3.68" shape="-3.84,-63.36 -6.64,-61.96"/>
    </edge>
    <edge id=":2_0" function="internal">
        <lane id=":2_0_0" index="0" disallow="bus truck rail_fast" speed="8.75" length="5.40" width="3.35" shape="36.01,22.13 35.61,22.14 35.26,22.16 34.93,22.18 34.63,22.20 34.36,22.22 34.10,22.26 33.87,22.30 33.65,22.35 33.44,22.42 33.23,22.50 33.03,22.59 32.83,22.69 32.63,22.82 32.42,22.96 32.20,23.12 31.96,23.31 31.71,23.52 31.44,23.75 31.14,24.01"/>
    </edge>
    <edge id=":20_0" function="internal">
        <lane id=":20_0_0" index="0" disallow="bus truck rail_fast" speed="14.27" length="3.68" width="2.93" shape="-6.21,-54.36 -6.46,-54.25 -6.68,-54.14 -6.88,-54.05 -7.07,-53.96 -7.24,-53.88 -7.40,-53.81 -7.54,-53.74 -7.68,-53.67 -7.81,-53.60 -7.93,-53.52 -8.06,-53.44 -8.18,-53.35 -8.31,-53.25 -8.44,-53.15 -8.58,-53.02 -8.72,-52.88 -8.88,-52.73 -9.06,-52.55 -9.24,-52.36"/>
    </edge>
    <edge id=":20_1" function="internal">
        <lane id=":20_1_0" index="0" disallow="rail_fast" speed="36.11" length="4.87" width="3.46" shape="-7.66,-57.40 -12.01,-55.25"/>
        <lane id=":20_1_1" index="1" disallow="rail_fast" speed="36.11" length="4.87" width="3.70" shape="-9.22,-60.67 -13.59,-58.48"/>
    </edge>
    <edge id=":20_3" function="internal">
        <lane id=":20_3_0" index="0" disallow="bus truck rail_fast" speed="36.11" length="4.93" width="3.01" shape="-9.22,-60.67 -9.55,-60.50 -9.85,-60.36 -10.12,-60.23 -10.37,-60.11 -10.59,-60.01 -10.80,-59.92 -11.00,-59.84 -11.19,-59.77 -11.38,-59.70 -11.56,-59.64 -11.75,-59.58 -11.95,-59.52 -12.15,-59.46 -12.38,-59.40 -12.62,-59.34 -12.88,-59.27 -13.17,-59.19 -13.49,-59.10 -13.85,-59.01"/>
    </edge>
    <edge id=":21_0" function="internal">
        <lane id=":21_0_0" index="0" disallow="rail_fast" speed="36.11" length="3.05" width="3.21" shape="-13.19,-54.67 -15.92,-53.31"/>
        <lane id=":21_0_1" index="1" disallow="rail_fast" speed="36.11" length="3.05" width="3.68" shape="-14.77,-57.89 -17.49,-56.52"/>
    </edge>
    <edge id=":22_0" function="internal">
        <lane id=":22_0_0" index="0" disallow="rail_fast" speed="36.11" length="10.83" width="3.17" shape="-27.44,-47.61 -37.15,-42.81"/>
        <lane id=":22_0_1" index="1" disallow="rail_fast" speed="36.11" length="10.83" width="3.68" shape="-29.01,-50.74 -38.69,-45.89"/>
    </edge>
    <edge id=":22_2" function="internal">
        <lane id=":22_2_0" index="0" disallow="bus truck rail_fast" speed="9.83" length="11.33" width="3.68" shape="-32.05,-54.52 -32.18,-53.91 -32.32,-53.32 -32.50,-52.74 -32.70,-52.19 -32.92,-51.65 -33.17,-51.12 -33.44,-50.62 -33.74,-50.13 -34.06,-49.66 -34.41,-49.21 -34.79,-48.77 -35.19,-48.35 -35.61,-47.95 -36.06,-47.56 -36.54,-47.19 -37.04,-46.84 -37.56,-46.51 -38.11,-46.19 -38.69,-45.89"/>
    </edge>
    <edge id=":23_0" function="internal">
        <lane id=":23_0_0" index="0" disallow="bus truck rail_fast" speed="36.11" length="4.83" width="5.13" shape="-51.31,-31.66 -46.63,-32.88"/>
    </edge>
    <edge id=":23_1" function="internal">
        <lane id=":23_1_0" index="0" disallow="rail_fast" speed="36.11" length="4.52" width="3.11" shape="-44.39,-39.26 -48.42,-37.19"/>
        <lane id=":23_1_1" index="1" disallow="rail_fast" speed="36.11" length="4.52" width="3.66" shape="-45.72,-42.41 -49.73,-40.33"/>
    </edge>
    <edge id=":25_0" function="internal">
        <lane id=":25_0_0" index="0" disallow="bus truck rail_fast" speed="36.11" length="2.87" width="5.36" shape="33.96,17.06 36.84,17.03"/>
    </edge>
    <edge id=":28_0" function="internal">
        <lane id=":28_0_0" index="0" disallow="rail_fast" speed="36.11" length="7.96" width="3.51" shape="-55.52,-141.01 -51.90,-133.68"/>
        <lane id=":28_0_1" index="1" disallow="rail_fast" speed="36.11" length="7.96" width="2.89" shape="-58.42,-139.43 -54.83,-132.24"/>
        <lane id=":28_0_2" index="2" disallow="rail_fast" speed="36.11" length="7.96" width="3.01" shape="-61.09,-137.97 -57.55,-130.89"/>
        <lane id=":28_0_3" index="3" disallow="rail_fast" speed="36.11" length="7.96" width="2.82" shape="-63.79,-136.50 -60.26,-129.56"/>
        <lane id=":28_0_4" index="4" disallow="bus rail_fast" speed="36.11" length="7.96" width="2.91" shape="-63.79,-136.50 -63.52,-135.97 -63.28,-135.50 -63.07,-135.07 -62.88,-134.68 -62.71,-134.32 -62.56,-133.99 -62.42,-133.67 -62.30,-133.37 -62.19,-133.07 -62.09,-132.78 -62.00,-132.48 -61.91,-132.16 -61.82,-131.83 -61.73,-131.47 -61.64,-131.09 -61.54,-130.66 -61.43,-130.20 -61.31,-129.68 -61.17,-129.11"/>
    </edge>
    <edge id=":29_0" function="internal">
        <lane id=":29_0_0" index="0" disallow="rail_fast" speed="36.11" length="3.88" width="3.35" shape="-47.13,-123.98 -45.43,-120.55"/>
        <lane id=":29_0_1" index="1" disallow="rail_fast" speed="36.11" length="3.88" width="2.89" shape="-49.98,-122.50 -48.26,-119.06"/>
        <lane id=":29_0_2" index="2" disallow="rail_fast" speed="36.11" length="3.88" width="3.08" shape="-52.67,-121.10 -50.94,-117.64"/>
        <lane id=":29_0_3" index="3" disallow="rail_fast" speed="36.11" length="3.88" width="2.82" shape="-55.33,-119.72 -53.59,-116.23"/>
        <lane id=":29_0_4" index="4" disallow="bus rail_fast" speed="36.11" length="3.88" width="3.05" shape="-57.73,-118.48 -57.63,-118.20 -57.54,-117.95 -57.46,-117.72 -57.38,-117.52 -57.32,-117.33 -57.25,-117.16 -57.20,-116.99 -57.14,-116.84 -57.08,-116.69 -57.03,-116.55 -56.97,-116.40 -56.90,-116.25 -56.83,-116.10 -56.76,-115.93 -56.68,-115.75 -56.58,-115.55 -56.48,-115.33 -56.36,-115.09 -56.23,-114.83"/>
    </edge>
    <edge id=":30_0" function="internal">
        <lane id=":30_0_0" index="0" disallow="bus truck rail_fast" speed="10.23" length="10.24" width="3.11" shape="-25.70,-81.63 -25.47,-81.22 -25.21,-80.83 -24.93,-80.46 -24.63,-80.09 -24.30,-79.74 -23.95,-79.40 -23.58,-79.08 -23.19,-78.77 -22.77,-78.47 -22.34,-78.18 -21.87,-77.91 -21.39,-77.65 -20.89,-77.40 -20.36,-77.17 -19.81,-76.95 -19.23,-76.74 -18.64,-76.54 -18.02,-76.36 -17.38,-76.19"/>
    </edge>
    <edge id=":30_1" function="internal">
        <lane id=":30_1_0" index="0" disallow="bus truck rail_fast" speed="11.58" length="11.05" width="3.13" shape="-28.76,-80.02 -28.39,-79.31 -28.05,-78.67 -27.72,-78.10 -27.40,-77.60 -27.09,-77.14 -26.77,-76.74 -26.45,-76.38 -26.12,-76.07 -25.77,-75.78 -25.41,-75.52 -25.02,-75.28 -24.60,-75.05 -24.15,-74.83 -23.67,-74.61 -23.14,-74.39 -22.56,-74.16 -21.93,-73.92 -21.25,-73.65 -20.50,-73.35"/>
    </edge>
    <edge id=":30_2" function="internal">
        <lane id=":30_2_0" index="0" disallow="rail_fast" speed="36.11" length="10.45" width="3.12" shape="-28.76,-80.02 -24.19,-70.47"/>
        <lane id=":30_2_1" index="1" disallow="rail_fast" speed="36.11" length="10.45" width="3.06" shape="-31.49,-78.58 -26.99,-69.15"/>
        <lane id=":30_2_2" index="2" disallow="rail_fast" speed="36.11" length="10.45" width="2.98" shape="-34.18,-77.17 -29.72,-67.86"/>
    </edge>
    <edge id=":30_5" function="internal">
        <lane id=":30_5_0" index="0" disallow="bus truck rail_fast" speed="36.11" length="10.20" width="2.87" shape="-36.87,-75.76 -36.53,-75.07 -36.23,-74.45 -35.95,-73.89 -35.69,-73.38 -35.46,-72.92 -35.25,-72.49 -35.05,-72.08 -34.87,-71.70 -34.70,-71.32 -34.53,-70.95 -34.36,-70.58 -34.20,-70.19 -34.03,-69.78 -33.86,-69.34 -33.68,-68.86 -33.49,-68.33 -33.28,-67.76 -33.06,-67.12 -32.81,-66.41"/>
    </edge>
    <edge id=":31_0" function="internal">
        <lane id=":31_0_0" index="0" disallow="rail_fast" speed="36.11" length="3.22" width="3.12" shape="-23.31,-68.61 -21.92,-65.71"/>
        <lane id=":31_0_1" index="1" disallow="rail_fast" speed="36.11" length="3.22" width="3.06" shape="-26.06,-67.21 -24.68,-64.30"/>
        <lane id=":31_0_2" index="2" disallow="rail_fast" speed="36.11" length="3.22" width="2.95" shape="-28.76,-65.84 -27.37,-62.93"/>
    </edge>
    <edge id=":32_0" function="internal">
        <lane id=":32_0_0" index="0" disallow="rail_fast" speed="36.11" length="2.64" width="3.14" shape="-15.87,-53.12 -14.73,-50.73"/>
        <lane id=":32_0_1" index="1" disallow="rail_fast" speed="36.11" length="2.64" width="3.10" shape="-18.68,-51.75 -17.54,-49.37"/>
        <lane id=":32_0_2" index="2" disallow="rail_fast" speed="36.11" length="2.64" width="2.93" shape="-21.40,-50.43 -20.27,-48.06"/>
    </edge>
    <edge id=":34_0" function="internal">
        <lane id=":34_0_0" index="0" disallow="rail_fast" speed="36.11" length="3.05" width="2.78" shape="-3.19,20.57 -4.55,17.84"/>
        <lane id=":34_0_1" index="1" disallow="rail_fast" speed="36.11" length="3.05" width="3.00" shape="-0.59,19.31 -1.95,16.58"/>
        <lane id=":34_0_2" index="2" disallow="bus rail_fast" speed="36.11" length="3.05" width="3.02" shape="2.13,17.99 0.79,15.25"/>
        <lane id=":34_0_3" index="3" disallow="bus rail_fast" speed="36.11" length="3.05" width="2.96" shape="4.85,16.67 3.50,13.93"/>
        <lane id=":34_0_4" index="4" disallow="rail_fast" speed="36.11" length="3.05" width="3.03" shape="7.57,15.35 6.21,12.62"/>
    </edge>
    <edge id=":35_0" function="internal">
        <lane id=":35_0_0" index="0" disallow="rail_fast" speed="21.96" length="7.43" width="2.94" shape="-12.55,1.97 -12.81,1.47 -13.04,1.03 -13.27,0.63 -13.47,0.28 -13.68,-0.04 -13.87,-0.33 -14.06,-0.60 -14.25,-0.84 -14.45,-1.07 -14.66,-1.29 -14.87,-1.51 -15.10,-1.72 -15.34,-1.95 -15.60,-2.19 -15.89,-2.44 -16.20,-2.72 -16.54,-3.03 -16.92,-3.37 -17.33,-3.75"/>
        <lane id=":35_0_1" index="1" disallow="rail_fast" speed="36.11" length="7.43" width="2.94" shape="-12.55,1.97 -15.86,-4.59"/>
        <lane id=":35_0_2" index="2" disallow="rail_fast" speed="36.11" length="7.43" width="3.05" shape="-9.88,0.63 -13.22,-6.08"/>
        <lane id=":35_0_3" index="3" disallow="rail_fast" speed="36.11" length="7.43" width="3.03" shape="-7.15,-0.75 -10.56,-7.59"/>
        <lane id=":35_0_4" index="4" disallow="rail_fast" speed="36.11" length="7.43" width="3.05" shape="-4.43,-2.13 -7.90,-9.10"/>
        <lane id=":35_0_5" index="5" disallow="rail_fast" speed="36.11" length="7.43" width="3.12" shape="-1.68,-3.51 -4.67,-9.58"/>
    </edge>
    <edge id=":36_0" function="internal">
        <lane id=":36_0_0" index="0" disallow="rail_fast" speed="15.71" length="3.50" width="3.22" shape="-17.71,-4.11 -17.92,-4.30 -18.11,-4.46 -18.29,-4.60 -18.46,-4.72 -18.62,-4.83 -18.77,-4.93 -18.91,-5.02 -19.05,-5.10 -19.18,-5.18 -19.31,-5.27 -19.43,-5.36 -19.55,-5.45 -19.67,-5.56 -19.79,-5.68 -19.90,-5.82 -20.02,-5.98 -20.14,-6.17 -20.27,-6.38 -20.40,-6.62"/>
        <lane id=":36_0_1" index="1" disallow="rail_fast" speed="36.11" length="3.50" width="2.87" shape="-16.05,-4.97 -17.57,-7.98"/>
        <lane id=":36_0_2" index="2" disallow="rail_fast" speed="36.11" length="3.50" width="3.00" shape="-13.35,-6.36 -14.82,-9.32"/>
        <lane id=":36_0_3" index="3" disallow="rail_fast" speed="36.11" length="3.50" width="3.02" shape="-10.64,-7.75 -12.09,-10.66"/>
        <lane id=":36_0_4" index="4" disallow="rail_fast" speed="36.11" length="3.50" width="3.02" shape="-7.95,-9.19 -9.37,-12.04"/>
        <lane id=":36_0_5" index="5" disallow="rail_fast" speed="36.11" length="3.50" width="3.03" shape="-4.76,-9.76 -6.58,-13.45"/>
    </edge>
    <edge id=":37_0" function="internal">
        <lane id=":37_0_0" index="0" disallow="bus truck rail_fast" speed="36.11" length="4.73" width="3.84" shape="-29.94,-25.58 -30.10,-25.90 -30.25,-26.19 -30.37,-26.44 -30.49,-26.68 -30.59,-26.90 -30.69,-27.10 -30.78,-27.28 -30.86,-27.46 -30.95,-27.63 -31.04,-27.79 -31.14,-27.96 -31.24,-28.12 -31.35,-28.30 -31.47,-28.48 -31.61,-28.67 -31.77,-28.88 -31.94,-29.11 -32.14,-29.36 -32.36,-29.63"/>
    </edge>
    <edge id=":37_1" function="internal">
        <lane id=":37_1_0" index="0" disallow="rail_fast" speed="36.11" length="5.10" width="2.87" shape="-26.98,-27.10 -29.28,-31.68"/>
        <lane id=":37_1_1" index="1" disallow="rail_fast" speed="36.11" length="5.10" width="3.02" shape="-24.33,-28.45 -26.62,-33.00"/>
        <lane id=":37_1_2" index="2" disallow="rail_fast" speed="36.11" length="5.10" width="3.12" shape="-21.60,-29.84 -23.85,-34.38"/>
    </edge>
    <edge id=":37_4" function="internal">
        <lane id=":37_4_0" index="0" disallow="bus truck rail_fast" speed="36.11" length="5.03" width="2.93" shape="-18.85,-31.24 -21.10,-35.74"/>
    </edge>
    <edge id=":37_5" function="internal">
        <lane id=":37_5_0" index="0" disallow="bus truck rail_fast" speed="36.11" length="4.99" width="3.03" shape="-16.14,-32.63 -18.37,-37.09"/>
    </edge>
    <edge id=":38_0" function="internal">
        <lane id=":38_0_0" index="0" disallow="rail_fast" speed="36.11" length="3.02" width="3.06" shape="-33.86,-40.93 -35.21,-43.64"/>
        <lane id=":38_0_1" index="1" disallow="rail_fast" speed="36.11" length="3.02" width="2.99" shape="-31.14,-42.26 -32.47,-44.98"/>
        <lane id=":38_0_2" index="2" disallow="rail_fast" speed="36.11" length="3.02" width="3.06" shape="-28.39,-43.62 -29.72,-46.33"/>
    </edge>
    <edge id=":39_0" function="internal">
        <lane id=":39_0_0" index="0" disallow="rail_fast" speed="36.11" length="1.22" width="3.29" shape="-41.18,-55.69 -40.64,-54.60"/>
        <lane id=":39_0_1" index="1" disallow="rail_fast" speed="36.11" length="1.22" width="2.97" shape="-38.40,-57.12 -37.86,-56.03"/>
        <lane id=":39_0_2" index="2" disallow="rail_fast" speed="36.11" length="1.22" width="3.01" shape="-35.71,-58.51 -35.17,-57.41"/>
    </edge>
    <edge id=":5_0" function="internal">
        <lane id=":5_0_0" index="0" disallow="bus truck rail_fast" speed="8.72" length="16.70" width="3.23" shape="-53.51,-49.21 -52.27,-49.85 -51.11,-50.48 -50.04,-51.11 -49.05,-51.74 -48.14,-52.37 -47.31,-53.00 -46.56,-53.63 -45.90,-54.26 -45.32,-54.88 -44.82,-55.50 -44.40,-56.12 -44.07,-56.74 -43.82,-57.36 -43.65,-57.97 -43.56,-58.58 -43.56,-59.20 -43.64,-59.81 -43.79,-60.42 -44.04,-61.02"/>
    </edge>
    <edge id=":5_1" function="internal">
        <lane id=":5_1_0" index="0" disallow="rail_fast" speed="36.11" length="13.86" width="3.23" shape="-53.51,-49.21 -41.22,-55.56"/>
        <lane id=":5_1_1" index="1" disallow="rail_fast" speed="36.11" length="13.86" width="3.03" shape="-52.12,-46.41 -39.75,-52.69"/>
    </edge>
    <edge id=":5_3" function="internal">
        <lane id=":5_3_0" index="0" disallow="bus truck rail_fast" speed="36.11" length="1.56" width="2.92" shape="-50.77,-43.67 -52.17,-42.99"/>
    </edge>
    <edge id=":6_0" function="internal">
        <lane id=":6_0_0" index="0" disallow="bus truck rail_fast" speed="9.12" length="13.80" width="3.05" shape="-9.80,-51.77 -10.17,-51.34 -10.49,-50.88 -10.77,-50.40 -11.00,-49.89 -11.18,-49.35 -11.32,-48.78 -11.42,-48.18 -11.47,-47.56 -11.47,-46.90 -11.43,-46.22 -11.34,-45.51 -11.21,-44.77 -11.03,-44.01 -10.80,-43.21 -10.53,-42.39 -10.22,-41.54 -9.86,-40.66 -9.45,-39.75 -9.00,-38.81"/>
    </edge>
    <edge id=":6_1" function="internal">
        <lane id=":6_1_0" index="0" disallow="rail_fast" speed="36.11" length="13.06" width="3.05" shape="-14.64,-50.55 -9.00,-38.81"/>
        <lane id=":6_1_1" index="1" disallow="rail_fast" speed="36.11" length="13.06" width="2.91" shape="-17.46,-49.19 -11.81,-37.41"/>
        <lane id=":6_1_2" index="2" disallow="rail_fast" speed="36.11" length="13.06" width="2.89" shape="-20.18,-47.87 -14.52,-36.05"/>
    </edge>
    <edge id=":6_4" function="internal">
        <lane id=":6_4_0" index="0" disallow="bus truck rail_fast" speed="36.11" length="13.55" width="2.89" shape="-21.04,-47.93 -14.52,-36.05"/>
    </edge>
    <edge id=":7_0" function="internal">
        <lane id=":7_0_0" index="0" disallow="rail_fast" speed="36.11" length="0.24" width="3.05" shape="1.34,-17.56 1.44,-17.35"/>
        <lane id=":7_0_1" index="1" disallow="rail_fast" speed="36.11" length="0.24" width="2.91" shape="-1.33,-16.23 -1.22,-16.01"/>
        <lane id=":7_0_2" index="2" disallow="rail_fast" speed="36.11" length="0.24" width="2.89" shape="-3.93,-14.93 -3.82,-14.70"/>
    </edge>
    <edge id=":8_0" function="internal">
        <lane id=":8_0_0" index="0" disallow="rail_fast" speed="36.11" length="3.05" width="3.03" shape="4.55,-11.28 5.93,-8.55"/>
        <lane id=":8_0_1" index="1" disallow="rail_fast" speed="36.11" length="3.05" width="3.00" shape="1.83,-9.92 3.20,-7.19"/>
        <lane id=":8_0_2" index="2" disallow="rail_fast" speed="36.11" length="3.05" width="2.94" shape="-0.81,-8.60 0.53,-5.87"/>
    </edge>
    <edge id=":9_0" function="internal">
        <lane id=":9_0_0" index="0" disallow="bus truck rail_fast" speed="10.11" length="13.46" width="3.16" shape="14.18,7.98 14.62,8.82 15.07,9.62 15.52,10.38 15.98,11.09 16.44,11.76 16.92,12.39 17.40,12.97 17.89,13.51 18.38,14.01 18.88,14.47 19.39,14.88 19.91,15.25 20.43,15.58 20.97,15.86 21.50,16.11 22.05,16.30 22.60,16.46 23.16,16.58 23.73,16.65"/>
    </edge>
    <edge id=":9_1" function="internal">
        <lane id=":9_1_0" index="0" disallow="rail_fast" speed="36.11" length="13.11" width="3.16" shape="14.18,7.98 19.99,19.75"/>
        <lane id=":9_1_1" index="1" disallow="bus rail_fast" speed="36.11" length="13.11" width="2.93" shape="11.41,9.33 17.23,21.08"/>
        <lane id=":9_1_2" index="2" disallow="rail_fast" speed="36.11" length="13.11" width="3.07" shape="8.66,10.67 14.49,22.41"/>
    </edge>

    <edge id="3426" from="34" to="35" priority="1" spreadType="center" length="21.90">
        <lane id="3426_0" index="0" disallow="rail_fast" speed="36.11" length="21.90" width="2.78" customShape="1" shape="-4.55,17.84 -9.03,8.95 -12.55,1.97"/>
        <lane id="3426_1" index="1" disallow="rail_fast" speed="36.11" length="21.90" width="3.00" customShape="1" shape="-1.95,16.58 -6.37,7.69 -9.88,0.63"/>
        <lane id="3426_2" index="2" disallow="rail_fast" speed="36.11" length="21.90" width="3.02" customShape="1" shape="0.79,15.25 -3.69,6.26 -7.15,-0.75"/>
        <lane id="3426_3" index="3" disallow="rail_fast" speed="36.11" length="21.90" width="2.96" customShape="1" shape="3.50,13.93 -1.00,4.80 -4.43,-2.13"/>
        <lane id="3426_4" index="4" disallow="rail_fast" speed="36.11" length="21.90" width="3.03" customShape="1" shape="6.21,12.62 1.72,3.42 -1.68,-3.51"/>
    </edge>
    <edge id="3438" from="35" to="36" priority="1" spreadType="center" length="8.44">
        <lane id="3438_0" index="0" disallow="rail_fast" speed="36.11" length="8.44" width="2.94" customShape="1" shape="-17.33,-3.75 -17.71,-4.11"/>
        <lane id="3438_1" index="1" disallow="rail_fast" speed="36.11" length="8.44" width="2.94" customShape="1" shape="-15.86,-4.59 -16.05,-4.97"/>
        <lane id="3438_2" index="2" disallow="rail_fast" speed="36.11" length="8.44" width="3.05" customShape="1" shape="-13.22,-6.08 -13.35,-6.36"/>
        <lane id="3438_3" index="3" disallow="rail_fast" speed="36.11" length="8.44" width="3.03" customShape="1" shape="-10.56,-7.59 -10.64,-7.75"/>
        <lane id="3438_4" index="4" disallow="rail_fast" speed="36.11" length="8.44" width="3.05" customShape="1" shape="-7.90,-9.10 -7.95,-9.19"/>
        <lane id="3438_5" index="5" disallow="rail_fast" speed="36.11" length="8.44" width="3.12" customShape="1" shape="-4.67,-9.58 -4.76,-9.76"/>
    </edge>
    <edge id="3450" from="36" to="37" priority="1" spreadType="center" length="24.49">
        <lane id="3450_0" index="0" disallow="rail_fast" speed="36.11" length="24.49" width="3.22" customShape="1" shape="-20.40,-6.62 -23.58,-12.89 -27.36,-20.57 -29.94,-25.58"/>
        <lane id="3450_1" index="1" disallow="rail_fast" speed="36.11" length="24.49" width="2.87" customShape="1" shape="-17.57,-7.98 -20.58,-14.04 -24.40,-21.98 -26.98,-27.10"/>
        <lane id="3450_2" index="2" disallow="rail_fast" speed="36.11" length="24.49" width="3.00" customShape="1" shape="-14.82,-9.32 -17.85,-15.37 -21.70,-23.32 -24.33,-28.45"/>
        <lane id="3450_3" index="3" disallow="rail_fast" speed="36.11" length="24.49" width="3.02" customShape="1" shape="-12.09,-10.66 -15.18,-16.82 -19.06,-24.76 -21.60,-29.84"/>
        <lane id="3450_4" index="4" disallow="rail_fast" speed="36.11" length="24.49" width="3.02" customShape="1" shape="-9.37,-12.04 -12.49,-18.27 -16.38,-26.22 -18.85,-31.24"/>
        <lane id="3450_5" index="5" disallow="rail_fast" speed="36.11" length="24.49" width="3.03" customShape="1" shape="-6.58,-13.45 -9.80,-19.78 -13.68,-27.73 -16.14,-32.63"/>
    </edge>
    <edge id="3456" from="6" to="7" priority="1" spreadType="center" length="24.71">
        <lane id="3456_0" index="0" disallow="rail_fast" speed="36.11" length="24.71" width="3.05" customShape="1" shape="-9.00,-38.81 -5.83,-32.48 -1.98,-24.56 1.34,-17.56"/>
        <lane id="3456_1" index="1" disallow="rail_fast" speed="36.11" length="24.71" width="2.91" customShape="1" shape="-11.81,-37.41 -8.40,-30.71 -4.72,-23.15 -1.33,-16.23"/>
        <lane id="3456_2" index="2" disallow="rail_fast" speed="36.11" length="24.71" width="2.89" customShape="1" shape="-14.52,-36.05 -11.02,-29.15 -7.24,-21.45 -3.93,-14.93"/>
    </edge>
    <edge id="3462" from="7" to="8" priority="1" spreadType="center" length="8.47">
        <lane id="3462_0" index="0" disallow="rail_fast" speed="36.11" length="8.47" width="3.05" customShape="1" shape="1.44,-17.35 4.55,-11.28"/>
        <lane id="3462_1" index="1" disallow="rail_fast" speed="36.11" length="8.47" width="2.91" customShape="1" shape="-1.22,-16.01 1.83,-9.92"/>
        <lane id="3462_2" index="2" disallow="rail_fast" speed="36.11" length="8.47" width="2.89" customShape="1" shape="-3.82,-14.70 -0.81,-8.60"/>
    </edge>
    <edge id="3468" from="8" to="9" priority="1" spreadType="center" length="22.24">
        <lane id="3468_0" index="0" disallow="rail_fast" speed="36.11" length="22.24" width="3.03" customShape="1" shape="5.93,-8.55 9.86,-0.60 14.18,7.98"/>
        <lane id="3468_1" index="1" disallow="rail_fast" speed="36.11" length="22.24" width="3.00" customShape="1" shape="3.20,-7.19 7.19,0.81 11.41,9.33"/>
        <lane id="3468_2" index="2" disallow="rail_fast" speed="36.11" length="22.24" width="2.94" customShape="1" shape="0.53,-5.87 4.49,2.19 8.66,10.67"/>
    </edge>
    <edge id="3498" from="1" to="2" priority="1" spreadType="center" length="9.59">
        <lane id="3498_0" index="0" disallow="rail_fast" speed="36.11" length="9.59" width="4.77" customShape="1" shape="45.19,21.82 36.01,22.13"/>
    </edge>
    <edge id="3500" from="25" to="26" priority="1" spreadType="center" length="9.59">
        <lane id="3500_0" index="0" disallow="rail_fast" speed="36.11" length="9.59" width="5.36" customShape="1" shape="36.84,17.03 44.98,16.76"/>
    </edge>
    <edge id="3509" from="4" to="5" priority="1" spreadType="center" length="15.63">
        <lane id="3509_0" index="0" disallow="rail_fast" speed="36.11" length="15.63" width="3.23" customShape="1" shape="-65.60,-43.20 -61.21,-45.38 -53.51,-49.21"/>
        <lane id="3509_1" index="1" disallow="rail_fast" speed="36.11" length="15.63" width="3.02" customShape="1" shape="-64.21,-40.40 -59.78,-42.60 -52.12,-46.41"/>
        <lane id="3509_2" index="2" disallow="rail_fast" speed="36.11" length="15.63" width="3.06" customShape="1" shape="-62.86,-37.67 -58.37,-39.90 -50.77,-43.67"/>
    </edge>
    <edge id="3517" from="23" to="24" priority="1" spreadType="center" length="14.50">