<routes>
	<vehicle depart="0.1" departLane="0" departPos="24.789050954997894" departSpeed="1.0306681" id="39" type="bicycle">
		<route edges=":29_5 49972"/>
	</vehicle>
	<vehicle depart="0.1" departLane="0" departPos="30.789421261218195" departSpeed="1.4414593" id="35" type="passenger">
		<route edges=":29_5 49972"/>
	</vehicle>
	<vehicle depart="0.1" departLane="0" departPos="21.59613402503457" departSpeed="0.66094252" id="311" type="passenger">
		<route edges=":29_5 49972"/>
	</vehicle>
	<vehicle depart="0.1" departLane="0" departPos="9.43778641543499" departSpeed="0.0" id="315" type="passenger">
		<route edges="49684 49972"/>
	</vehicle>
	<vehicle depart="0.1" departLane="0" departPos="9.285744987544668" departSpeed="1.0038287" id="319" type="passenger">
		<route edges=":29_4 49683"/>
	</vehicle>
	<vehicle depart="0.1" departLane="0" departPos="71.19372372188397" departSpeed="0.70474991" id="322" type="passenger">
		<route edges="49975 49972 49674"/>
	</vehicle>
	<vehicle depart="0.1" departLane="0" departPos="32.54406746069943" departSpeed="7.6694269" id="325" type="passenger">
		<route edges=":30_1 49973 49976"/>
	</vehicle>
	<vehicle depart="0.1" departLane="0" departPos="51.58642524965723" departSpeed="0.013412488" id="326" type="passenger">
		<route edges="49975 49972"/>
	</vehicle>
	<vehicle depart="0.1" departLane="0" departPos="20.768936807306215" departSpeed="2.307713" id="34" type="motorcycle">
		<route edges="49972 49969"/>
	</vehicle>
</routes>
