<routes>
	<vehicle depart="0.1" departLane="0" departPos="66.82160649372466" departSpeed="0.0" id="312" type="bicycle">
		<route edges="148 92"/>
	</vehicle>
	<vehicle depart="0.1" departLane="0" departPos="11.250903285993715" departSpeed="5.7031969" id="345" type="bus">
		<route edges=":37_2 149"/>
	</vehicle>
	<vehicle depart="0.1" departLane="0" departPos="75.23860387645453" departSpeed="4.6491615e-05" id="38" type="passenger">
		<route edges="146 92"/>
	</vehicle>
	<vehicle depart="0.1" departLane="0" departPos="67.83047569292711" departSpeed="0.00069272309" id="39" type="passenger">
		<route edges="146 92"/>
	</vehicle>
	<vehicle depart="0.1" departLane="0" departPos="51.69165024556509" departSpeed="0.00090887438" id="311" type="passenger">
		<route edges="148 92"/>
	</vehicle>
	<vehicle depart="0.1" departLane="0" departPos="66.48401566830888" departSpeed="0.0" id="314" type="passenger">
		<route edges="148 92"/>
	</vehicle>
	<vehicle depart="0.1" departLane="0" departPos="82.51652394600224" departSpeed="0.0" id="315" type="passenger">
		<route edges="146 92"/>
	</vehicle>
	<vehicle depart="0.1" departLane="0" departPos="59.08820131502147" departSpeed="0.00017737449" id="316" type="passenger">
		<route edges="148 92"/>
	</vehicle>
	<vehicle depart="0.1" departLane="0" departPos="26.010515273892903" departSpeed="10.70113" id="318" type="passenger">
		<route edges="151 177"/>
	</vehicle>
	<vehicle depart="0.1" departLane="0" departPos="44.18934597983692" departSpeed="0.0022777677" id="321" type="passenger">
		<route edges="148 92"/>
	</vehicle>
	<vehicle depart="0.1" departLane="0" departPos="5.630375440771959" departSpeed="8.5334992" id="324" type="passenger">
		<route edges="151 177"/>
	</vehicle>
	<vehicle depart="0.1" departLane="0" departPos="2.5" departSpeed="0.0" id="325" type="passenger">
		<route edges="143 151"/>
	</vehicle>
	<vehicle depart="0.1" departLane="0" departPos="36.73769355529209" departSpeed="0.0036661242" id="329" type="passenger">
		<route edges="148 92"/>
	</vehicle>
	<vehicle depart="0.1" departLane="0" departPos="78.0593991032532" departSpeed="8.7092551" id="330" type="passenger">
		<route edges="145 151 177"/>
	</vehicle>
	<vehicle depart="0.1" departLane="0" departPos="8.458921173219583" departSpeed="0.0" id="331" type="passenger">
		<route edges="140 143"/>
	</vehicle>
	<vehicle depart="0.1" departLane="0" departPos="60.92636594638274" departSpeed="15.393048" id="338" type="passenger">
		<route edges="152 146"/>
	</vehicle>
	<vehicle depart="0.1" departLane="0" departPos="29.684757091302554" departSpeed="0.0056709561" id="339" type="passenger">
		<route edges="148 92"/>
	</vehicle>
	<vehicle depart="0.1" departLane="0" departPos="22.749535910563207" departSpeed="0.011471756" id="344" type="passenger">
		<route edges="148 92"/>
	</vehicle>
	<vehicle depart="0.1" departLane="0" departPos="15.595295921781869" departSpeed="0.030612808" id="350" type="passenger">
		<route edges="148 92"/>
	</vehicle>
	<vehicle depart="0.1" departLane="0" departPos="61.888518420173085" departSpeed="5.8019241" id="352" type="passenger">
		<route edges="91 145 139"/>
	</vehicle>
	<vehicle depart="0.1" departLane="0" departPos="66.42739477024183" departSpeed="11.113302" id="355" type="passenger">
		<route edges="210 152 146"/>
	</vehicle>
	<vehicle depart="0.1" departLane="0" departPos="47.103919652836915" departSpeed="6.8382915" id="356" type="passenger">
		<route edges="91 145 139"/>
	</vehicle>
	<vehicle depart="0.1" departLane="0" departPos="8.318000086773377" departSpeed="0.080275496" id="358" type="passenger">
		<route edges="148 92"/>
	</vehicle>
	<vehicle depart="0.1" departLane="0" departPos="43.81340084978764" departSpeed="10.375953" id="359" type="passenger">
		<route edges="210 152 146"/>
	</vehicle>
	<vehicle depart="0.1" departLane="0" departPos="30.02356632283202" departSpeed="8.2174566" id="361" type="passenger">
		<route edges="91 145 139"/>
	</vehicle>
	<vehicle depart="0.1" departLane="0" departPos="14.189329963636597" departSpeed="5.1674284" id="363" type="passenger">
		<route edges="91 145 139"/>
	</vehicle>
	<vehicle depart="0.1" departLane="0" departPos="71.4592202670429" departSpeed="19.118316" id="36" type="motorcycle">
		<route edges="151 177"/>
	</vehicle>
	<vehicle depart="0.1" departLane="0" departPos="84.99275124347712" departSpeed="16.158044" id="328" type="truck">
		<route edges="152 146"/>
	</vehicle>
	<vehicle depart="0.1" departLane="0" departPos="16.21915119268894" departSpeed="11.712188" id="351" type="truck">
		<route edges=":38_0 152 146"/>
	</vehicle>
</routes>
