<routes>
	<vehicle depart="0.1" departLane="0" departPos="4.073321955763397" departSpeed="6.8484919" id="315" type="bicycle">
		<route edges="13089"/>
	</vehicle>
	<vehicle depart="0.1" departLane="0" departPos="17.727714807046166" departSpeed="6.643886" id="317" type="bicycle">
		<route edges=":5_0 13089"/>
	</vehicle>
	<vehicle depart="0.1" departLane="0" departPos="23.15520546578501" departSpeed="6.4159096" id="318" type="passenger">
		<route edges=":5_0 13089"/>
	</vehicle>
	<vehicle depart="0.1" departLane="0" departPos="51.84956210267725" departSpeed="12.1332" id="320" type="passenger">
		<route edges="13130 13089"/>
	</vehicle>
</routes>
