<routes>
	<vehicle depart="0.1" departLane="0" departPos="20.03200402974097" departSpeed="5.9371281" id="1" type="passenger">
		<route edges="50201 50213 50197"/>
	</vehicle>
	<vehicle depart="0.1" departLane="0" departPos="71.6447393310811" departSpeed="3.6573631" id="2" type="passenger">
		<route edges="50195 50211 50199"/>
	</vehicle>
	<vehicle depart="0.1" departLane="0" departPos="143.2820581084088" departSpeed="2.6565961" id="4" type="passenger">
		<route edges="50205 50217 50199"/>
	</vehicle>
	<vehicle depart="0.1" departLane="0" departPos="151.2820731919338" departSpeed="4.8014695" id="5" type="passenger">
		<route edges="50205 50217 50199"/>
	</vehicle>
	<vehicle depart="0.1" departLane="0" departPos="12.0296824929303" departSpeed="4.3250391" id="7" type="passenger">
		<route edges="50201 50213 50197"/>
	</vehicle>
</routes>
