<routes>
	<vehicle depart="0.1" departLane="0" departPos="43.05452605628303" departSpeed="0.0" id="37" type="bicycle">
		<route edges="44518 44515"/>
	</vehicle>
	<vehicle depart="0.1" departLane="0" departPos="42.9922659115964" departSpeed="0.0" id="39" type="bicycle">
		<route edges="44518 44515"/>
	</vehicle>
	<vehicle depart="0.1" departLane="0" departPos="48.99212761263693" departSpeed="0.0" id="32" type="passenger">
		<route edges="44518 44515"/>
	</vehicle>
	<vehicle depart="0.1" departLane="0" departPos="27.29094661295784" departSpeed="1.0353314" id="38" type="passenger">
		<route edges=":43_3 44475 44351"/>
	</vehicle>
	<vehicle depart="0.1" departLane="0" departPos="14.158060519286472" departSpeed="2.775133" id="314" type="passenger">
		<route edges=":43_3 44475"/>
	</vehicle>
	<vehicle depart="0.1" departLane="0" departPos="38.49201622346435" departSpeed="7.4812961e-05" id="319" type="passenger">
		<route edges="44518 44515"/>
	</vehicle>
	<vehicle depart="0.1" departLane="0" departPos="32.20110010051286" departSpeed="0.0" id="322" type="passenger">
		<route edges=":40_0 44578"/>
	</vehicle>
	<vehicle depart="0.1" departLane="0" departPos="24.609739670299877" departSpeed="0.0" id="327" type="passenger">
		<route edges=":40_0 44578"/>
	</vehicle>
	<vehicle depart="0.1" departLane="1" departPos="19.171472193980915" departSpeed="16.231709" id="354" type="passenger">
		<route edges=":39_2 44351 44354"/>
	</vehicle>
</routes>
