<routes>
	<vehicle depart="0.1" departLane="0" departPos="9.741959483323866" departSpeed="0.019400953" id="32" type="passenger">
		<route edges=":25_8 56656"/>
	</vehicle>
	<vehicle depart="0.1" departLane="1" departPos="72.4999998278826" departSpeed="6.1932009" id="39" type="passenger">
		<route edges="56330 56334 56865"/>
	</vehicle>
	<vehicle depart="0.1" departLane="0" departPos="11.728610892939173" departSpeed="0.8255399" id="316" type="passenger">
		<route edges=":25_11 56724 56328"/>
	</vehicle>
	<vehicle depart="0.1" departLane="0" departPos="25.104118418696427" departSpeed="0.59984209" id="318" type="passenger">
		<route edges="55911 57018"/>
	</vehicle>
	<vehicle depart="0.1" departLane="0" departPos="2.5" departSpeed="8.1330175" id="320" type="passenger">
		<route edges="56865 56231"/>
	</vehicle>
	<vehicle depart="0.1" departLane="2" departPos="53.015635260919886" departSpeed="0.97279469" id="321" type="passenger">
		<route edges="56006 56001 56656"/>
	</vehicle>
	<vehicle depart="0.1" departLane="1" departPos="66.25980076677976" departSpeed="1.5051007" id="322" type="passenger">
		<route edges="56233 56237 57018"/>
	</vehicle>
	<vehicle depart="0.1" departLane="2" departPos="14.083357459572829" departSpeed="1.2204135" id="336" type="passenger">
		<route edges="56001 56656"/>
	</vehicle>
	<vehicle depart="0.1" departLane="1" departPos="50.054234842454726" departSpeed="4.2113582" id="355" type="passenger">
		<route edges="56330 56334"/>
	</vehicle>
	<vehicle depart="0.1" departLane="2" departPos="45.807354227575516" departSpeed="0.42743582" id="334" type="motorcycle">
		<route edges="56006 56001"/>
	</vehicle>
</routes>
