<routes>
	<vehicle depart="0.1" departLane="0" departPos="20.751109568978404" departSpeed="0.0" id="34" type="passenger">
		<route edges="62460 62063"/>
	</vehicle>
	<vehicle depart="0.1" departLane="0" departPos="13.249299662040205" departSpeed="4.499869e-05" id="310" type="passenger">
		<route edges="62460 62063"/>
	</vehicle>
	<vehicle depart="0.1" departLane="0" departPos="5.746873093477502" departSpeed="0.00066279154" id="315" type="passenger">
		<route edges="62460 62063"/>
	</vehicle>
	<vehicle depart="0.1" departLane="0" departPos="21.28764687881542" departSpeed="6.4356348" id="316" type="passenger">
		<route edges=":38_5 62175"/>
	</vehicle>
	<vehicle depart="0.1" departLane="0" departPos="29.149899819510058" departSpeed="4.6827603" id="317" type="passenger">
		<route edges=":37_2 62459 62175"/>
	</vehicle>
	<vehicle depart="0.1" departLane="0" departPos="30.82920464792161" departSpeed="0.14901254" id="318" type="passenger">
		<route edges=":38_3 62460"/>
	</vehicle>
	<vehicle depart="0.1" departLane="0" departPos="54.576972315188335" departSpeed="0.0" id="337" type="passenger">
		<route edges="62174 62171"/>
	</vehicle>
	<vehicle depart="0.1" departLane="0" departPos="47.11104340255004" departSpeed="4.9451914e-05" id="340" type="passenger">
		<route edges="62174 62171"/>
	</vehicle>
	<vehicle depart="0.1" departLane="0" departPos="60.53643423520004" departSpeed="0.24064854" id="319" type="truck">
		<route edges="62172 62175"/>
	</vehicle>
	<vehicle depart="0.1" departLane="0" departPos="30.712928340433738" departSpeed="5.893201" id="326" type="truck">
		<route edges=":38_5 62175"/>
	</vehicle>
</routes>
