<!-- generated on 2020-12-18 15:39:53.572665 by ipykernel_launcher.py v1_2_0+5214-53edc58fcd
-->
<tlLogics/>
