<!-- generated on 2020-12-18 17:09:39.776815 by ipykernel_launcher.py v1_2_0+5214-53edc58fcd
-->
<connections>
	<connection contPos="-4.0" from="9" fromLane="0" keepClear="true" to="7" toLane="0"/>
</connections>
