<!-- generated on 2020-12-18 17:09:39.600243 by ipykernel_launcher.py v1_2_0+5214-53edc58fcd
-->
<edges>
	<edge from="1" function="normal" id="6" length="16.0" numLanes="1" priority="1" speed="36.11111111111111" spreadType="center" to="2">
		<lane allow="moped bicycle pedestrian custom1 trailer evehicle rail_urban ship private truck vip custom2 authority delivery rail_electric taxi tram army hov coach motorcycle passenger bus rail emergency" index="0" length="16.0" shape="0.0,20.1 0.1616,20.1 0.3232,20.1 0.4848,20.1 0.6465,20.1 0.8081,20.1 0.9697,20.1 1.1313,20.1 1.2929,20.1 1.4545,20.1 1.6162,20.1 1.7778,20.1 1.9394,20.1 2.101,20.1 2.2626,20.1 2.4242,20.1 2.5859,20.1 2.7475,20.1 2.9091,20.1 3.0707,20.1 3.2323,20.1 3.3939,20.1 3.5556,20.1 3.7172,20.1 3.8788,20.1 4.0404,20.1 4.202,20.1 4.3636,20.1 4.5253,20.1 4.6869,20.1 4.8485,20.1 5.0101,20.1 5.1717,20.1 5.3333,20.1 5.4949,20.1 5.6566,20.1 5.8182,20.1 5.9798,20.1 6.1414,20.1 6.303,20.1 6.4646,20.1 6.6263,20.1 6.7879,20.1 6.9495,20.1 7.1111,20.1 7.2727,20.1 7.4343,20.1 7.596,20.1 7.7576,20.1 7.9192,20.1 8.0808,20.1 8.2424,20.1 8.404,20.1 8.5657,20.1 8.7273,20.1 8.8889,20.1 9.0505,20.1 9.2121,20.1 9.3737,20.1 9.5354,20.1 9.697,20.1 9.8586,20.1 10.0202,20.1 10.1818,20.1 10.3434,20.1 10.5051,20.1 10.6667,20.1 10.8283,20.1 10.9899,20.1 11.1515,20.1 11.3131,20.1 11.4747,20.1 11.6364,20.1 11.798,20.1 11.9596,20.1 12.1212,20.1 12.2828,20.1 12.4444,20.1 12.6061,20.1 12.7677,20.1 12.9293,20.1 13.0909,20.1 13.2525,20.1 13.4141,20.1 13.5758,20.1 13.7374,20.1 13.899,20.1 14.0606,20.1 14.2222,20.1 14.3838,20.1 14.5455,20.1 14.7071,20.1 14.8687,20.1 15.0303,20.1 15.1919,20.1 15.3535,20.1 15.5152,20.1 15.6768,20.1 15.8384,20.1 16.0,20.1" speed="36.11111111111111" width="3.0"/>
	</edge>
	<edge from="3" function="normal" id="7" length="15.999999999999996" numLanes="1" priority="1" speed="36.11111111111111" spreadType="center" to="4">
		<lane allow="moped bicycle pedestrian custom1 trailer evehicle rail_urban ship private truck vip custom2 authority delivery rail_electric taxi tram army hov coach motorcycle passenger bus rail emergency" index="0" length="15.999999999999996" shape="16.0,23.1 15.8384,23.1 15.6768,23.1 15.5152,23.1 15.3535,23.1 15.1919,23.1 15.0303,23.1 14.8687,23.1 14.7071,23.1 14.5455,23.1 14.3838,23.1 14.2222,23.1 14.0606,23.1 13.899,23.1 13.7374,23.1 13.5758,23.1 13.4141,23.1 13.2525,23.1 13.0909,23.1 12.9293,23.1 12.7677,23.1 12.6061,23.1 12.4444,23.1 12.2828,23.1 12.1212,23.1 11.9596,23.1 11.798,23.1 11.6364,23.1 11.4747,23.1 11.3131,23.1 11.1515,23.1 10.9899,23.1 10.8283,23.1 10.6667,23.1 10.5051,23.1 10.3434,23.1 10.1818,23.1 10.0202,23.1 9.8586,23.1 9.697,23.1 9.5354,23.1 9.3737,23.1 9.2121,23.1 9.0505,23.1 8.8889,23.1 8.7273,23.1 8.5657,23.1 8.404,23.1 8.2424,23.1 8.0808,23.1 7.9192,23.1 7.7576,23.1 7.596,23.1 7.4343,23.1 7.2727,23.1 7.1111,23.1 6.9495,23.1 6.7879,23.1 6.6263,23.1 6.4646,23.1 6.303,23.1 6.1414,23.1 5.9798,23.1 5.8182,23.1 5.6566,23.1 5.4949,23.1 5.3333,23.1 5.1717,23.1 5.0101,23.1 4.8485,23.1 4.6869,23.1 4.5253,23.1 4.3636,23.1 4.202,23.1 4.0404,23.1 3.8788,23.1 3.7172,23.1 3.5556,23.1 3.3939,23.1 3.2323,23.1 3.0707,23.1 2.9091,23.1 2.7475,23.1 2.5859,23.1 2.4242,23.1 2.2626,23.1 2.101,23.1 1.9394,23.1 1.7778,23.1 1.6162,23.1 1.4545,23.1 1.2929,23.1 1.1313,23.1 0.9697,23.1 0.8081,23.1 0.6465,23.1 0.4848,23.1 0.3232,23.1 0.1616,23.1 0.0,23.1" speed="36.11111111111111" width="3.0"/>
	</edge>
	<edge from="5" function="normal" id="4" length="24.0" numLanes="1" priority="1" speed="36.11111111111111" spreadType="center" to="6">
		<lane allow="moped bicycle pedestrian custom1 trailer evehicle rail_urban ship private truck vip custom2 authority delivery rail_electric taxi tram army hov coach motorcycle passenger bus rail emergency" index="0" length="24.0" shape="16.0,20.1 16.2424,20.1 16.4848,20.1 16.7273,20.1 16.9697,20.1 17.2121,20.1 17.4545,20.1 17.697,20.1 17.9394,20.1 18.1818,20.1 18.4242,20.1 18.6667,20.1 18.9091,20.1 19.1515,20.1 19.3939,20.1 19.6364,20.1 19.8788,20.1 20.1212,20.1 20.3636,20.1 20.6061,20.1 20.8485,20.1 21.0909,20.1 21.3333,20.1 21.5758,20.1 21.8182,20.1 22.0606,20.1 22.303,20.1 22.5455,20.1 22.7879,20.1 23.0303,20.1 23.2727,20.1 23.5152,20.1 23.7576,20.1 24.0,20.1 24.2424,20.1 24.4848,20.1 24.7273,20.1 24.9697,20.1 25.2121,20.1 25.4545,20.1 25.697,20.1 25.9394,20.1 26.1818,20.1 26.4242,20.1 26.6667,20.1 26.9091,20.1 27.1515,20.1 27.3939,20.1 27.6364,20.1 27.8788,20.1 28.1212,20.1 28.3636,20.1 28.6061,20.1 28.8485,20.1 29.0909,20.1 29.3333,20.1 29.5758,20.1 29.8182,20.1 30.0606,20.1 30.303,20.1 30.5455,20.1 30.7879,20.1 31.0303,20.1 31.2727,20.1 31.5152,20.1 31.7576,20.1 32.0,20.1 32.2424,20.1 32.4848,20.1 32.7273,20.1 32.9697,20.1 33.2121,20.1 33.4545,20.1 33.697,20.1 33.9394,20.1 34.1818,20.1 34.4242,20.1 34.6667,20.1 34.9091,20.1 35.1515,20.1 35.3939,20.1 35.6364,20.1 35.8788,20.1 36.1212,20.1 36.3636,20.1 36.6061,20.1 36.8485,20.1 37.0909,20.1 37.3333,20.1 37.5758,20.1 37.8182,20.1 38.0606,20.1 38.303,20.1 38.5455,20.1 38.7879,20.1 39.0303,20.1 39.2727,20.1 39.5152,20.1 39.7576,20.1 40.0,20.1" speed="36.11111111111111" width="3.0"/>
	</edge>
	<edge from="7" function="normal" id="5" length="24.0" numLanes="1" priority="1" speed="36.11111111111111" spreadType="center" to="8">
		<lane allow="moped bicycle pedestrian custom1 trailer evehicle rail_urban ship private truck vip custom2 authority delivery rail_electric taxi tram army hov coach motorcycle passenger bus rail emergency" index="0" length="24.0" shape="40.0,23.1 39.7576,23.1 39.5152,23.1 39.2727,23.1 39.0303,23.1 38.7879,23.1 38.5455,23.1 38.303,23.1 38.0606,23.1 37.8182,23.1 37.5758,23.1 37.3333,23.1 37.0909,23.1 36.8485,23.1 36.6061,23.1 36.3636,23.1 36.1212,23.1 35.8788,23.1 35.6364,23.1 35.3939,23.1 35.1515,23.1 34.9091,23.1 34.6667,23.1 34.4242,23.1 34.1818,23.1 33.9394,23.1 33.697,23.1 33.4545,23.1 33.2121,23.1 32.9697,23.1 32.7273,23.1 32.4848,23.1 32.2424,23.1 32.0,23.1 31.7576,23.1 31.5152,23.1 31.2727,23.1 31.0303,23.1 30.7879,23.1 30.5455,23.1 30.303,23.1 30.0606,23.1 29.8182,23.1 29.5758,23.1 29.3333,23.1 29.0909,23.1 28.8485,23.1 28.6061,23.1 28.3636,23.1 28.1212,23.1 27.8788,23.1 27.6364,23.1 27.3939,23.1 27.1515,23.1 26.9091,23.1 26.6667,23.1 26.4242,23.1 26.1818,23.1 25.9394,23.1 25.697,23.1 25.4545,23.1 25.2121,23.1 24.9697,23.1 24.7273,23.1 24.4848,23.1 24.2424,23.1 24.0,23.1 23.7576,23.1 23.5152,23.1 23.2727,23.1 23.0303,23.1 22.7879,23.1 22.5455,23.1 22.303,23.1 22.0606,23.1 21.8182,23.1 21.5758,23.1 21.3333,23.1 21.0909,23.1 20.8485,23.1 20.6061,23.1 20.3636,23.1 20.1212,23.1 19.8788,23.1 19.6364,23.1 19.3939,23.1 19.1515,23.1 18.9091,23.1 18.6667,23.1 18.4242,23.1 18.1818,23.1 17.9394,23.1 17.697,23.1 17.4545,23.1 17.2121,23.1 16.9697,23.1 16.7273,23.1 16.4848,23.1 16.2424,23.1 16.0,23.1" speed="36.11111111111111" width="3.0"/>
	</edge>
	<edge from="2" function="normal" id="8" length="9.5" numLanes="1" priority="1" speed="36.11111111111111" spreadType="center" to="9">
		<lane allow="moped bicycle pedestrian custom1 trailer evehicle rail_urban ship private truck vip custom2 authority delivery rail_electric taxi tram army hov coach motorcycle passenger bus rail emergency" index="0" length="9.5" shape="-9.5,20.1 -9.0,20.1 -8.5,20.1 -8.0,20.1 -7.5,20.1 -7.0,20.1 -6.5,20.1 -6.0,20.1 -5.5,20.1 -5.0,20.1 -4.5,20.1 -4.0,20.1 -3.5,20.1 -3.0,20.1 -2.5,20.1 -2.0,20.1 -1.5,20.1 -1.0,20.1 -0.5,20.1 0.0,20.1" speed="36.11111111111111" width="3.0"/>
	</edge>
	<edge from="10" function="normal" id="9" length="9.5" numLanes="1" priority="1" speed="36.11111111111111" spreadType="center" to="3">
		<lane allow="moped bicycle pedestrian custom1 trailer evehicle rail_urban ship private truck vip custom2 authority delivery rail_electric taxi tram army hov coach motorcycle passenger bus rail emergency" index="0" length="9.5" shape="0.0,23.1 -0.5,23.1 -1.0,23.1 -1.5,23.1 -2.0,23.1 -2.5,23.1 -3.0,23.1 -3.5,23.1 -4.0,23.1 -4.5,23.1 -5.0,23.1 -5.5,23.1 -6.0,23.1 -6.5,23.1 -7.0,23.1 -7.5,23.1 -8.0,23.1 -8.5,23.1 -9.0,23.1 -9.5,23.1" speed="36.11111111111111" width="3.0"/>
	</edge>
</edges>
