<?xml version="1.0" encoding="UTF-8"?>

<!-- generated on Fri Dec 18 17:09:39 2020 by Eclipse SUMO netconvert Version 1.8.0
<configuration xmlns:xsi="http://www.w3.org/2001/XMLSchema-instance" xsi:noNamespaceSchemaLocation="http://sumo.dlr.de/xsd/netconvertConfiguration.xsd">

    <input>
        <node-files value="./converted_scenarios/THI-Bicycle/RUS_Bicycle-12_1_I-1-1/nodes.net.xml"/>
        <edge-files value="./converted_scenarios/THI-Bicycle/RUS_Bicycle-12_1_I-1-1/edges.net.xml"/>
        <connection-files value="./converted_scenarios/THI-Bicycle/RUS_Bicycle-12_1_I-1-1/_connections.net.xml"/>
        <tllogic-files value="./converted_scenarios/THI-Bicycle/RUS_Bicycle-12_1_I-1-1/_tll.net.xml"/>
    </input>

    <output>
        <output-file value="./converted_scenarios/THI-Bicycle/RUS_Bicycle-12_1_I-1-1/RUS_Bicycle-12_1_I-1-1.net.xml"/>
    </output>

    <processing>
        <plain.extend-edge-shape value="true"/>
        <geometry.remove.keep-edges.explicit value="true"/>
        <geometry.avoid-overlap value="true"/>
        <offset.disable-normalization value="true"/>
    </processing>

    <junctions>
        <no-turnarounds value="true"/>
        <junctions.internal-link-detail value="20"/>
    </junctions>

    <report>
        <aggregate-warnings value="5"/>
    </report>

    <random_number>
        <seed value="1234"/>
    </random_number>

</configuration>
-->

<net version="1.6" junctionCornerDetail="5" junctionLinkDetail="20" limitTurnSpeed="5.50" xmlns:xsi="http://www.w3.org/2001/XMLSchema-instance" xsi:noNamespaceSchemaLocation="http://sumo.dlr.de/xsd/net_file.xsd">

    <location netOffset="0.00,0.00" convBoundary="0.00,20.10,40.00,23.10" origBoundary="-9.50,20.10,40.00,23.10" projParameter="!"/>

    <edge id=":3_0" function="internal">
        <lane id=":3_0_0" index="0" disallow="rail_fast" speed="36.11" length="11.97" width="3.00" shape="7.90,23.10 8.33,22.29 8.75,21.57 9.18,20.95 9.61,20.41 10.03,19.96 10.46,19.60 10.88,19.33 11.31,19.15 11.74,19.06 12.16,19.06 12.59,19.15 13.02,19.33 13.44,19.60 13.87,19.96 14.29,20.41 14.72,20.95 15.15,21.57 15.57,22.29 16.00,23.10"/>
    </edge>

    <edge id="4" from="5" to="6" priority="1" spreadType="center" length="24.00">
        <lane id="4_0" index="0" disallow="rail_fast" speed="36.11" length="24.00" width="3.00" customShape="1" shape="16.00,20.10 16.24,20.10 16.48,20.10 16.73,20.10 16.97,20.10 17.21,20.10 17.45,20.10 17.70,20.10 17.94,20.10 18.18,20.10 18.42,20.10 18.67,20.10 18.91,20.10 19.15,20.10 19.39,20.10 19.64,20.10 19.88,20.10 20.12,20.10 20.36,20.10 20.61,20.10 20.85,20.10 21.09,20.10 21.33,20.10 21.58,20.10 21.82,20.10 22.06,20.10 22.30,20.10 22.55,20.10 22.79,20.10 23.03,20.10 23.27,20.10 23.52,20.10 23.76,20.10 24.00,20.10 24.24,20.10 24.48,20.10 24.73,20.10 24.97,20.10 25.21,20.10 25.45,20.10 25.70,20.10 25.94,20.10 26.18,20.10 26.42,20.10 26.67,20.10 26.91,20.10 27.15,20.10 27.39,20.10 27.64,20.10 27.88,20.10 28.12,20.10 28.36,20.10 28.61,20.10 28.85,20.10 29.09,20.10 29.33,20.10 29.58,20.10 29.82,20.10 30.06,20.10 30.30,20.10 30.55,20.10 30.79,20.10 31.03,20.10 31.27,20.10 31.52,20.10 31.76,20.10 32.00,20.10 32.24,20.10 32.48,20.10 32.73,20.10 32.97,20.10 33.21,20.10 33.45,20.10 33.70,20.10 33.94,20.10 34.18,20.10 34.42,20.10 34.67,20.10 34.91,20.10 35.15,20.10 35.39,20.10 35.64,20.10 35.88,20.10 36.12,20.10 36.36,20.10 36.61,20.10 36.85,20.10 37.09,20.10 37.33,20.10 37.58,20.10 37.82,20.10 38.06,20.10 38.30,20.10 38.55,20.10 38.79,20.10 39.03,20.10 39.27,20.10 39.52,20.10 39.76,20.10 40.00,20.10"/>
    </edge>
    <edge id="5" from="7" to="8" priority="1" spreadType="center" length="24.00">
        <lane id="5_0" index="0" disallow="rail_fast" speed="36.11" length="24.00" width="3.00" customShape="1" shape="40.00,23.10 39.76,23.10 39.52,23.10 39.27,23.10 39.03,23.10 38.79,23.10 38.55,23.10 38.30,23.10 38.06,23.10 37.82,23.10 37.58,23.10 37.33,23.10 37.09,23.10 36.85,23.10 36.61,23.10 36.36,23.10 36.12,23.10 35.88,23.10 35.64,23.10 35.39,23.10 35.15,23.10 34.91,23.10 34.67,23.10 34.42,23.10 34.18,23.10 33.94,23.10 33.70,23.10 33.45,23.10 33.21,23.10 32.97,23.10 32.73,23.10 32.48,23.10 32.24,23.10 32.00,23.10 31.76,23.10 31.52,23.10 31.27,23.10 31.03,23.10 30.79,23.10 30.55,23.10 30.30,23.10 30.06,23.10 29.82,23.10 29.58,23.10 29.33,23.10 29.09,23.10 28.85,23.10 28.61,23.10 28.36,23.10 28.12,23.10 27.88,23.10 27.64,23.10 27.39,23.10 27.15,23.10 26.91,23.10 26.67,23.10 26.42,23.10 26.18,23.10 25.94,23.10 25.70,23.10 25.45,23.10 25.21,23.10 24.97,23.10 24.73,23.10 24.48,23.10 24.24,23.10 24.00,23.10 23.76,23.10 23.52,23.10 23.27,23.10 23.03,23.10 22.79,23.10 22.55,23.10 22.30,23.10 22.06,23.10 21.82,23.10 21.58,23.10 21.33,23.10 21.09,23.10 20.85,23.10 20.61,23.10 20.36,23.10 20.12,23.10 19.88,23.10 19.64,23.10 19.39,23.10 19.15,23.10 18.91,23.10 18.67,23.10 18.42,23.10 18.18,23.10 17.94,23.10 17.70,23.10 17.45,23.10 17.21,23.10 16.97,23.10 16.73,23.10 16.48,23.10 16.24,23.10 16.00,23.10"/>
    </edge>
    <edge id="6" from="1" to="2" priority="1" spreadType="center" length="16.00" shape="0.00,20.10 16.00,18.60">
        <lane id="6_0" index="0" disallow="rail_fast" speed="36.11" length="16.00" width="3.00" customShape="1" shape="-0.00,20.10 0.16,20.10 0.32,20.10 0.48,20.10 0.65,20.10 0.81,20.10 0.97,20.10 1.13,20.10 1.29,20.10 1.45,20.10 1.62,20.10 1.78,20.10 1.94,20.10 2.10,20.10 2.26,20.10 2.42,20.10 2.59,20.10 2.75,20.10 2.91,20.10 3.07,20.10 3.23,20.10 3.39,20.10 3.56,20.10 3.72,20.10 3.88,20.10 4.04,20.10 4.20,20.10 4.36,20.10 4.53,20.10 4.69,20.10 4.85,20.10 5.01,20.10 5.17,20.10 5.33,20.10 5.49,20.10 5.66,20.10 5.82,20.10 5.98,20.10 6.14,20.10 6.30,20.10 6.46,20.10 6.63,20.10 6.79,20.10 6.95,20.10 7.11,20.10 7.27,20.10 7.43,20.10 7.60,20.10 7.76,20.10 7.92,20.10 8.08,20.10 8.24,20.10 8.40,20.10 8.57,20.10 8.73,20.10 8.89,20.10 9.05,20.10 9.21,20.10 9.37,20.10 9.54,20.10 9.70,20.10 9.86,20.10 10.02,20.10 10.18,20.10 10.34,20.10 10.51,20.10 10.67,20.10 10.83,20.10 10.99,20.10 11.15,20.10 11.31,20.10 11.47,20.10 11.64,20.10 11.80,20.10 11.96,20.10 12.12,20.10 12.28,20.10 12.44,20.10 12.61,20.10 12.77,20.10 12.93,20.10 13.09,20.10 13.25,20.10 13.41,20.10 13.58,20.10 13.74,20.10 13.90,20.10 14.06,20.10 14.22,20.10 14.38,20.10 14.55,20.10 14.71,20.10 14.87,20.10 15.03,20.10 15.19,20.10 15.35,20.10 15.52,20.10 15.68,20.10 15.84,20.10 16.00,20.10"/>
    </edge>
    <edge id="7" from="3" to="4" priority="1" spreadType="center" length="16.00" shape="16.00,24.60 0.00,23.10">
        <lane id="7_0" index="0" disallow="rail_fast" speed="36.11" length="16.00" width="3.00" customShape="1" shape="16.00,23.10 15.84,23.10 15.68,23.10 15.52,23.10 15.35,23.10 15.19,23.10 15.03,23.10 14.87,23.10 14.71,23.10 14.55,23.10 14.38,23.10 14.22,23.10 14.06,23.10 13.90,23.10 13.74,23.10 13.58,23.10 13.41,23.10 13.25,23.10 13.09,23.10 12.93,23.10 12.77,23.10 12.61,23.10 12.44,23.10 12.28,23.10 12.12,23.10 11.96,23.10 11.80,23.10 11.64,23.10 11.47,23.10 11.31,23.10 11.15,23.10 10.99,23.10 10.83,23.10 10.67,23.10 10.51,23.10 10.34,23.10 10.18,23.10 10.02,23.10 9.86,23.10 9.70,23.10 9.54,23.10 9.37,23.10 9.21,23.10 9.05,23.10 8.89,23.10 8.73,23.10 8.57,23.10 8.40,23.10 8.24,23.10 8.08,23.10 7.92,23.10 7.76,23.10 7.60,23.10 7.43,23.10 7.27,23.10 7.11,23.10 6.95,23.10 6.79,23.10 6.63,23.10 6.46,23.10 6.30,23.10 6.14,23.10 5.98,23.10 5.82,23.10 5.66,23.10 5.49,23.10 5.33,23.10 5.17,23.10 5.01,23.10 4.85,23.10 4.69,23.10 4.53,23.10 4.36,23.10 4.20,23.10 4.04,23.10 3.88,23.10 3.72,23.10 3.56,23.10 3.39,23.10 3.23,23.10 3.07,23.10 2.91,23.10 2.75,23.10 2.59,23.10 2.42,23.10 2.26,23.10 2.10,23.10 1.94,23.10 1.78,23.10 1.62,23.10 1.45,23.10 1.29,23.10 1.13,23.10 0.97,23.10 0.81,23.10 0.65,23.10 0.48,23.10 0.32,23.10 0.16,23.10 -0.00,23.10"/>
    </edge>
    <edge id="8" from="2" to="9" priority="1" spreadType="center" length="9.50" shape="16.00,21.60 0.00,20.10">
        <lane id="8_0" index="0" disallow="rail_fast" speed="36.11" length="9.50" width="3.00" customShape="1" shape="7.90,20.10 8.10,20.10"/>
    </edge>
    <edge id="9" from="10" to="3" priority="1" spreadType="center" length="9.50" shape="0.00,23.10 16.00,21.60">
        <lane id="9_0" index="0" disallow="rail_fast" speed="36.11" length="9.50" width="3.00" customShape="1" shape="8.10,23.10 7.90,23.10"/>
    </edge>

    <junction id="1" type="dead_end" x="0.00" y="20.10" incLanes="" intLanes="" shape="-0.00,21.60 -0.00,18.60"/>
    <junction id="10" type="dead_end" x="0.00" y="23.10" incLanes="" intLanes="" shape="0.00,21.60 0.00,24.60"/>
    <junction id="2" type="dead_end" x="16.00" y="20.10" incLanes="6_0" intLanes="" shape="16.00,21.60 16.00,18.60 16.00,21.60"/>
    <junction id="3" type="priority" x="16.00" y="23.10" incLanes="9_0" intLanes=":3_0_0" shape="16.00,21.60 16.00,24.60 16.00,21.60">
        <request index="0" response="0" foes="0" cont="0"/>
    </junction>
    <junction id="4" type="dead_end" x="0.00" y="23.10" incLanes="7_0" intLanes="" shape="-0.00,24.60 -0.00,21.60"/>
    <junction id="5" type="dead_end" x="16.00" y="20.10" incLanes="" intLanes="" shape="16.00,21.60 16.00,18.60"/>
    <junction id="6" type="dead_end" x="40.00" y="20.10" incLanes="4_0" intLanes="" shape="40.00,18.60 40.00,21.60"/>
    <junction id="7" type="dead_end" x="40.00" y="23.10" incLanes="" intLanes="" shape="40.00,21.60 40.00,24.60"/>
    <junction id="8" type="dead_end" x="16.00" y="23.10" incLanes="5_0" intLanes="" shape="16.00,24.60 16.00,21.60"/>
    <junction id="9" type="dead_end" x="0.00" y="20.10" incLanes="8_0" intLanes="" shape="0.00,18.60 0.00,21.60"/>

    <connection from="9" to="7" fromLane="0" toLane="0" contPos="-4.00" via=":3_0_0" dir="t" state="M"/>

    <connection from=":3_0" to="7" fromLane="0" toLane="0" dir="t" state="M"/>

</net>
