<routes>
	<vehicle depart="0.1" departLane="0" departPos="7.0" departSpeed="3.2" id="1" type="bicycle">
		<route edges="6 4"/>
	</vehicle>
	<vehicle depart="0.1" departLane="0" departPos="11.999999999999998" departSpeed="5.0" id="2" type="passenger">
		<route edges="7 9 7"/>
	</vehicle>
	<vehicle depart="0.1" departLane="0" departPos="10.0" departSpeed="3.0" id="3" type="passenger">
		<route edges="5"/>
	</vehicle>
</routes>
