<routes>
	<vehicle depart="0.1" departLane="0" departPos="47.53178132194931" departSpeed="0.10093301" id="315" type="bicycle">
		<route edges="1751 2051"/>
	</vehicle>
	<vehicle depart="0.1" departLane="0" departPos="32.77043745213435" departSpeed="7.5751288" id="329" type="bus">
		<route edges=":20_2 2408"/>
	</vehicle>
	<vehicle depart="0.1" departLane="0" departPos="67.17116256379859" departSpeed="1.8110969" id="31" type="passenger">
		<route edges="2407 1750"/>
	</vehicle>
	<vehicle depart="0.1" departLane="0" departPos="53.19326446529093" departSpeed="0.2876776" id="33" type="passenger">
		<route edges="2407 1750"/>
	</vehicle>
	<vehicle depart="0.1" departLane="0" departPos="10.394254388652787" departSpeed="3.3749161" id="311" type="passenger">
		<route edges=":20_9 1792"/>
	</vehicle>
	<vehicle depart="0.1" departLane="0" departPos="21.386895492097622" departSpeed="2.7535644" id="318" type="passenger">
		<route edges="1751 2051"/>
	</vehicle>
	<vehicle depart="0.1" departLane="0" departPos="2.5" departSpeed="8.1879635" id="331" type="passenger">
		<route edges=":20_8 1750"/>
	</vehicle>
	<vehicle depart="0.1" departLane="0" departPos="10.717698178388309" departSpeed="2.0870953" id="336" type="passenger">
		<route edges=":20_2 2408"/>
	</vehicle>
	<vehicle depart="0.1" departLane="0" departPos="36.325824148597476" departSpeed="9.8676003" id="327" type="motorcycle">
		<route edges=":20_8 1750"/>
	</vehicle>
	<vehicle depart="0.1" departLane="0" departPos="56.9860335472286" departSpeed="2.3142254" id="34" type="truck">
		<route edges="1751 2051"/>
	</vehicle>
</routes>
