<!-- generated on Wed Feb 10 12:26:14 2021 by Eclipse SUMO netconvert Version 1.8.0
<configuration xmlns:xsi="http://www.w3.org/2001/XMLSchema-instance" xsi:noNamespaceSchemaLocation="http://sumo.dlr.de/xsd/netconvertConfiguration.xsd">

    <input>
        <node-files value="./converted_scenarios/SUMO/DEU_Lohmar-36_1_I-1-1/DEU_Lohmar-36_1_I-1-1.nod.xml"/>
        <edge-files value="./converted_scenarios/SUMO/DEU_Lohmar-36_1_I-1-1/DEU_Lohmar-36_1_I-1-1.edg.xml"/>
        <connection-files value="./converted_scenarios/SUMO/DEU_Lohmar-36_1_I-1-1/DEU_Lohmar-36_1_I-1-1.con.xml"/>
        <tllogic-files value="./converted_scenarios/SUMO/DEU_Lohmar-36_1_I-1-1/DEU_Lohmar-36_1_I-1-1.tll.xml"/>
        <type-files value="/home/zen/commonroad-interactive-benchmarks/install/commonroad-map-tool/crmapconverter/sumo_map/templates/DEU.typ.xml"/>
    </input>

    <output>
        <output-file value="./converted_scenarios/SUMO/DEU_Lohmar-36_1_I-1-1/DEU_Lohmar-36_1_I-1-1.net.xml"/>
    </output>

    <processing>
        <geometry.remove.keep-edges.explicit value="true"/>
        <geometry.avoid-overlap value="true"/>
        <offset.disable-normalization value="true"/>
    </processing>

    <junctions>
        <no-turnarounds value="true"/>
        <junctions.internal-link-detail value="20"/>
    </junctions>

    <report>
        <aggregate-warnings value="5"/>
    </report>

    <random_number>
        <seed value="1234"/>
    </random_number>

</configuration>
--><net xmlns:xsi="http://www.w3.org/2001/XMLSchema-instance" version="1.6" junctionCornerDetail="5" junctionLinkDetail="20" limitTurnSpeed="5.50" xsi:noNamespaceSchemaLocation="http://sumo.dlr.de/xsd/net_file.xsd">

    <location netOffset="0.00,0.00" convBoundary="-166.17,-260.68,153.77,104.08" origBoundary="-166.17,-260.68,153.77,104.08" projParameter="!"/>

    <type id="highway.bridleway" priority="1" speed="2.78" allow="pedestrian" oneway="1" width="2.00"/>
    <type id="highway.bus_guideway" priority="1" speed="27.78" allow="bus" oneway="1"/>
    <type id="highway.cycleway" priority="1" speed="8.33" allow="bicycle" oneway="0" width="1.00"/>
    <type id="highway.footway" priority="1" speed="2.78" allow="pedestrian" oneway="1" width="2.00"/>
    <type id="highway.ford" priority="1" speed="2.78" allow="army" oneway="0"/>
    <type id="highway.living_street" priority="2" speed="2.78" disallow="tram rail_urban rail rail_electric rail_fast ship" oneway="0"/>
    <type id="highway.motorway" priority="14" speed="39.44" allow="private emergency authority army vip passenger hov taxi bus coach delivery truck trailer motorcycle evehicle custom1 custom2" oneway="1"/>
    <type id="highway.motorway_link" priority="9" speed="22.22" allow="private emergency authority army vip passenger hov taxi bus coach delivery truck trailer motorcycle evehicle custom1 custom2" oneway="1"/>
    <type id="highway.path" priority="1" speed="2.78" allow="pedestrian bicycle" oneway="0" width="2.00"/>
    <type id="highway.pedestrian" priority="1" speed="2.78" allow="pedestrian" oneway="1" width="2.00"/>
    <type id="highway.primary" priority="12" speed="27.78" disallow="pedestrian tram rail_urban rail rail_electric rail_fast ship" oneway="0"/>
    <type id="highway.primary_link" priority="7" speed="22.22" disallow="pedestrian tram rail_urban rail rail_electric rail_fast ship" oneway="0"/>
    <type id="highway.raceway" priority="15" speed="83.33" allow="vip" oneway="0"/>
    <type id="highway.residential" priority="3" speed="13.89" disallow="pedestrian tram rail_urban rail rail_electric rail_fast ship" oneway="0"/>
    <type id="highway.secondary" priority="11" speed="27.78" disallow="pedestrian tram rail_urban rail rail_electric rail_fast ship" oneway="0"/>
    <type id="highway.secondary_link" priority="6" speed="22.22" disallow="pedestrian tram rail_urban rail rail_electric rail_fast ship" oneway="0"/>
    <type id="highway.service" priority="1" speed="5.56" allow="pedestrian delivery bicycle" oneway="0"/>
    <type id="highway.stairs" priority="1" speed="1.39" allow="pedestrian" oneway="1" width="2.00"/>
    <type id="highway.step" priority="1" speed="1.39" allow="pedestrian" oneway="1" width="2.00"/>
    <type id="highway.steps" priority="1" speed="1.39" allow="pedestrian" oneway="1" width="2.00"/>
    <type id="highway.tertiary" priority="10" speed="22.22" disallow="pedestrian tram rail_urban rail rail_electric rail_fast ship" oneway="0"/>
    <type id="highway.tertiary_link" priority="5" speed="22.22" disallow="pedestrian tram rail_urban rail rail_electric rail_fast ship" oneway="0"/>
    <type id="highway.track" priority="1" speed="5.56" allow="pedestrian motorcycle moped bicycle" oneway="0"/>
    <type id="highway.trunk" priority="13" speed="27.78" disallow="pedestrian bicycle tram rail_urban rail rail_electric rail_fast ship" oneway="0"/>
    <type id="highway.trunk_link" priority="8" speed="22.22" disallow="pedestrian bicycle tram rail_urban rail rail_electric rail_fast ship" oneway="0"/>
    <type id="highway.unclassified" priority="4" speed="13.89" disallow="pedestrian tram rail_urban rail rail_electric rail_fast ship" oneway="0"/>
    <type id="highway.unsurfaced" priority="1" speed="8.33" disallow="tram rail_urban rail rail_electric rail_fast ship" oneway="0"/>
    <type id="railway.highspeed" priority="21" speed="69.44" allow="rail_fast" oneway="1"/>
    <type id="railway.light_rail" priority="19" speed="27.78" allow="rail_urban" oneway="1"/>
    <type id="railway.preserved" priority="16" speed="27.78" allow="rail" oneway="1"/>
    <type id="railway.rail" priority="20" speed="44.44" allow="rail" oneway="1"/>
    <type id="railway.subway" priority="18" speed="27.78" allow="rail_urban" oneway="1"/>
    <type id="railway.tram" priority="17" speed="13.89" allow="tram" oneway="1"/>

    <edge id=":29_0" function="internal">
        <lane id=":29_0_0" index="0" disallow="pedestrian tram rail_urban rail rail_electric rail_fast ship" speed="7.69" length="11.81" width="3.50" shape="94.41,40.42 93.17,39.71 92.29,39.39 91.36,39.21 90.42,39.20 89.48,39.34 88.15,39.82 86.92,40.53 85.80,41.39 84.44,42.71 84.12,43.05"/>
    </edge>
    <edge id=":29_1" function="internal">
        <lane id=":29_1_0" index="0" disallow="pedestrian tram rail_urban rail rail_electric rail_fast ship" speed="36.11" length="17.72" width="3.50" shape="94.41,40.42 92.77,39.31 88.87,37.02 84.36,34.77 78.68,32.35"/>
    </edge>
    <edge id=":29_2" function="internal">
        <lane id=":29_2_0" index="0" disallow="pedestrian tram rail_urban rail rail_electric rail_fast ship" speed="36.11" length="18.48" width="3.50" shape="79.97,29.10 85.84,31.60 90.57,33.96 94.67,36.37 96.38,37.52"/>
    </edge>
    <edge id=":29_3" function="internal">
        <lane id=":29_3_0" index="0" disallow="pedestrian tram rail_urban rail rail_electric rail_fast ship" speed="8.14" length="18.55" width="3.50" shape="79.97,29.10 82.21,30.11 84.27,31.36 85.50,32.40 86.52,33.65 86.91,34.35 87.17,35.12 87.32,35.91 87.35,36.71 87.26,37.51 86.79,39.05 86.05,40.48 84.65,42.44 84.12,43.05"/>
    </edge>
    <edge id=":29_4" function="internal">
        <lane id=":29_4_0" index="0" disallow="pedestrian tram rail_urban rail rail_electric rail_fast ship" speed="6.56" length="11.54" width="3.50" shape="81.51,40.72 81.90,40.26 82.28,39.79 82.63,39.29 82.95,38.77 83.23,38.23 83.45,37.66 83.59,37.07 83.59,36.47 83.45,35.88 83.17,35.34 82.80,34.86 82.37,34.43 81.90,34.05 81.40,33.70 80.88,33.39 80.34,33.10 79.79,32.83 79.24,32.58 78.68,32.35"/>
    </edge>
    <edge id=":29_5" function="internal">
        <lane id=":29_5_0" index="0" disallow="pedestrian tram rail_urban rail rail_electric rail_fast ship" speed="9.08" length="16.88" width="3.50" shape="81.51,40.72 81.96,40.23 83.75,38.53 85.33,37.37 87.10,36.42 89.07,35.81 90.51,35.64 91.94,35.71 93.35,36.02 94.67,36.53 96.38,37.52"/>
    </edge>
    <edge id=":30_0" function="internal">
        <lane id=":30_0_0" index="0" disallow="pedestrian tram rail_urban rail rail_electric rail_fast ship" speed="6.22" length="11.39" width="3.50" shape="-132.87,-247.23 -133.13,-247.49 -133.58,-247.92 -134.04,-248.33 -134.52,-248.71 -135.05,-249.03 -135.61,-249.27 -136.21,-249.39 -136.80,-249.32 -137.35,-249.08 -137.83,-248.71 -138.26,-248.27 -138.64,-247.79 -138.98,-247.28 -139.29,-246.75 -139.58,-246.20 -139.84,-245.65 -140.08,-245.08 -140.31,-244.51 -140.53,-243.94"/>
    </edge>
    <edge id=":30_1" function="internal">
        <lane id=":30_1_0" index="0" disallow="pedestrian tram rail_urban rail rail_electric rail_fast ship" speed="12.54" length="14.23" width="3.00" shape="-132.85,-247.25 -133.36,-247.86 -133.87,-248.45 -134.39,-249.05 -134.91,-249.63 -135.42,-250.22 -135.92,-250.80 -136.41,-251.39 -136.88,-251.98 -137.33,-252.57 -137.75,-253.18 -138.14,-253.79 -138.49,-254.42 -138.80,-255.06 -139.06,-255.72 -139.27,-256.40 -139.43,-257.09 -139.53,-257.82 -139.56,-258.56 -139.53,-259.33"/>
    </edge>
    <edge id=":30_2" function="internal">
        <lane id=":30_2_0" index="0" disallow="pedestrian tram rail_urban rail rail_electric rail_fast ship" speed="11.43" length="15.03" width="3.49" shape="-135.06,-261.25 -136.41,-254.98 -136.31,-254.55 -136.15,-254.12 -135.93,-253.72 -135.66,-253.34 -135.35,-252.98 -135.00,-252.66 -134.62,-252.36 -134.22,-252.09 -133.81,-251.83 -133.39,-251.59 -132.96,-251.36 -132.53,-251.13 -132.11,-250.90 -131.69,-250.65 -131.28,-250.40 -130.89,-250.12 -130.52,-249.81 -130.14,-249.45"/>
    </edge>
    <edge id=":30_3" function="internal">
        <lane id=":30_3_0" index="0" disallow="pedestrian tram rail_urban rail rail_electric rail_fast ship" speed="36.11" length="18.16" width="3.50" shape="-135.06,-261.25 -138.49,-249.70 -140.53,-243.94"/>
    </edge>
    <edge id=":30_4" function="internal">
        <lane id=":30_4_0" index="0" disallow="pedestrian tram rail_urban rail rail_electric rail_fast ship" speed="36.11" length="15.44" width="3.46" shape="-143.81,-245.15 -138.62,-259.69"/>
    </edge>
    <edge id=":30_5" function="internal">
        <lane id=":30_5_0" index="0" disallow="pedestrian tram rail_urban rail rail_electric rail_fast ship" speed="7.88" length="19.25" width="3.49" shape="-143.82,-245.14 -142.82,-247.57 -141.58,-249.87 -140.53,-251.26 -139.24,-252.43 -138.48,-252.87 -137.67,-253.16 -136.80,-253.28 -135.93,-253.25 -135.09,-253.04 -133.51,-252.32 -132.09,-251.30 -130.14,-249.45"/>
    </edge>
    <edge id=":32_0" function="internal">
        <lane id=":32_0_0" index="0" disallow="pedestrian tram rail_urban rail rail_electric rail_fast ship" speed="36.11" length="16.79" width="3.50" shape="-64.09,57.97 -69.63,50.94 -74.24,44.60"/>
    </edge>
    <edge id=":32_1" function="internal">
        <lane id=":32_1_0" index="0" disallow="pedestrian tram rail_urban rail rail_electric rail_fast ship" speed="8.53" length="17.34" width="3.50" shape="-64.09,57.97 -65.40,56.17 -66.40,54.27 -66.84,52.90 -67.05,51.48 -66.98,50.05 -66.62,48.66 -66.00,47.37 -64.73,45.63 -63.19,44.13 -62.02,43.21"/>
    </edge>
    <edge id=":32_2" function="internal">
        <lane id=":32_2_0" index="0" disallow="pedestrian tram rail_urban rail rail_electric rail_fast ship" speed="7.06" length="11.48" width="3.50" shape="-59.98,46.06 -60.81,46.71 -61.93,47.78 -62.80,48.97 -63.17,49.74 -63.39,50.57 -63.44,51.40 -63.32,52.25 -63.04,53.11 -62.34,54.44 -61.40,55.73"/>
    </edge>
    <edge id=":32_3" function="internal">
        <lane id=":32_3_0" index="0" disallow="pedestrian tram rail_urban rail rail_electric rail_fast ship" speed="8.62" length="16.49" width="3.50" shape="-59.98,46.06 -62.42,47.59 -64.39,48.44 -65.78,48.81 -67.20,48.93 -68.63,48.78 -69.99,48.35 -71.25,47.66 -72.37,46.77 -73.81,45.18 -74.24,44.60"/>
    </edge>
    <edge id=":32_4" function="internal">
        <lane id=":32_4_0" index="0" disallow="pedestrian tram rail_urban rail rail_electric rail_fast ship" speed="7.13" length="10.90" width="3.50" shape="-71.39,42.58 -71.05,43.03 -70.68,43.48 -70.29,43.90 -69.86,44.28 -69.40,44.62 -68.90,44.91 -68.37,45.13 -67.82,45.27 -67.25,45.32 -66.68,45.31 -66.11,45.23 -65.55,45.09 -65.01,44.91 -64.48,44.69 -63.96,44.44 -63.46,44.16 -62.97,43.86 -62.49,43.55 -62.02,43.21"/>
    </edge>
    <edge id=":32_5" function="internal">
        <lane id=":32_5_0" index="0" disallow="pedestrian tram rail_urban rail rail_electric rail_fast ship" speed="36.11" length="16.52" width="3.50" shape="-71.39,42.58 -66.84,48.83 -61.40,55.73"/>
    </edge>

    <edge id="1045" from="30" to="31" priority="3" type="highway.residential" spreadType="center" length="0.20">
        <lane id="1045_0" index="0" disallow="pedestrian tram rail_urban rail rail_electric rail_fast ship" speed="36.11" length="0.20" width="3.46" customShape="1" shape="-138.62,-259.69 -138.55,-259.88"/>
    </edge>
    <edge id="1161" from="30" to="31" priority="3" type="highway.residential" spreadType="center" length="0.20">
        <lane id="1161_0" index="0" disallow="pedestrian tram rail_urban rail rail_electric rail_fast ship" speed="36.11" length="0.20" width="3.00" customShape="1" shape="-139.53,-259.33 -139.51,-259.53"/>
    </edge>
    <edge id="208" from="30" to="5" priority="3" type="highway.residential" spreadType="center" length="70.00" shape="-135.09,-247.60 -162.88,-177.62">
        <lane id="208_0" index="0" disallow="pedestrian tram rail_urban rail rail_electric rail_fast ship" speed="36.11" length="70.00" width="3.50" customShape="1" shape="-140.53,-243.94 -150.47,-216.58 -155.15,-202.82 -162.88,-177.62"/>
    </edge>
    <edge id="209" from="19" to="30" priority="3" type="highway.residential" spreadType="center" length="70.01" shape="-166.17,-178.83 -138.34,-248.89">
        <lane id="209_0" index="0" disallow="pedestrian tram rail_urban rail rail_electric rail_fast ship" speed="36.11" length="70.01" width="3.50" customShape="1" shape="-166.17,-178.83 -158.48,-203.90 -153.78,-217.74 -143.81,-245.15"/>
    </edge>
    <edge id="211" from="25" to="30" priority="3" type="highway.residential" spreadType="center" length="0.20">
        <lane id="211_0" index="0" disallow="pedestrian tram rail_urban rail rail_electric rail_fast ship" speed="36.11" length="0.20" width="2.57" customShape="1" shape="-135.01,-261.44 -135.06,-261.25"/>
    </edge>
    <edge id="307" from="29" to="30" priority="3" type="highway.residential" spreadType="center" length="399.63" shape="84.47,38.27 -138.12,-247.14">
        <lane id="307_0" index="0" disallow="pedestrian tram rail_urban rail rail_electric rail_fast ship" speed="36.11" length="399.63" width="3.50" customShape="1" shape="78.68,32.35 75.42,31.06 31.57,13.13 13.01,5.30 -1.25,-1.10 -13.98,-7.22 -24.33,-12.58 -35.80,-19.01 -64.36,-36.03 -75.70,-42.48 -84.45,-47.54 -90.43,-51.40 -95.82,-55.33 -100.60,-59.24 -104.77,-63.09 -109.06,-67.58 -113.17,-72.28 -116.03,-76.06 -118.32,-79.62 -120.56,-83.83 -122.49,-88.15 -124.08,-92.62 -125.33,-97.18 -126.35,-102.32 -127.34,-109.35 -128.03,-116.92 -128.40,-125.51 -128.40,-135.59 -127.64,-158.15 -127.40,-170.62 -127.27,-180.27 -126.18,-201.46 -125.91,-210.97 -126.06,-218.45 -126.52,-224.90 -127.70,-234.43 -128.47,-238.30 -129.32,-241.08 -130.45,-243.70 -131.63,-245.76 -132.85,-247.25"/>
    </edge>
    <edge id="308" from="30" to="29" priority="3" type="highway.residential" spreadType="center" length="397.90" shape="-135.36,-249.29 87.23,36.12">
        <lane id="308_0" index="0" disallow="pedestrian tram rail_urban rail rail_electric rail_fast ship" speed="36.11" length="397.90" width="3.49" customShape="1" shape="-130.17,-249.47 -128.73,-247.71 -127.31,-245.26 -126.02,-242.25 -125.08,-239.14 -124.24,-234.98 -123.04,-225.23 -122.56,-218.60 -122.41,-210.95 -122.68,-201.31 -123.77,-180.16 -123.90,-170.59 -124.14,-158.05 -124.90,-135.53 -124.90,-125.58 -124.54,-117.15 -123.87,-109.76 -122.90,-102.90 -121.93,-97.99 -120.75,-93.67 -119.24,-89.46 -117.42,-85.37 -115.31,-81.40 -113.17,-78.07 -110.46,-74.50 -106.48,-69.94 -102.31,-65.59 -98.31,-61.88 -93.68,-58.11 -88.45,-54.29 -82.62,-50.53 -73.97,-45.52 -62.59,-39.05 -34.05,-22.04 -22.67,-15.67 -12.42,-10.35 0.22,-4.28 14.40,2.09 32.90,9.90 76.72,27.81 80.00,29.11"/>
    </edge>
    <edge id="310" from="21" to="29" priority="3" type="highway.residential" spreadType="center" length="70.07" shape="151.80,80.48 84.89,38.66">
        <lane id="310_0" index="0" disallow="pedestrian tram rail_urban rail rail_electric rail_fast ship" speed="36.11" length="70.07" width="3.50" customShape="1" shape="151.80,80.48 146.46,76.99 131.55,66.81 94.35,40.37"/>
    </edge>
    <edge id="311" from="29" to="15" priority="3" type="highway.residential" spreadType="center" length="70.00" shape="86.74,35.69 153.77,77.59">
        <lane id="311_0" index="0" disallow="pedestrian tram rail_urban rail rail_electric rail_fast ship" speed="36.11" length="70.00" width="3.50" customShape="1" shape="96.38,37.52 133.55,63.94 148.40,74.08 153.77,77.59"/>
    </edge>
    <edge id="357" from="32" to="3" priority="3" type="highway.residential" spreadType="center" length="70.00" shape="-64.32,47.08 -8.90,101.84">
        <lane id="357_0" index="0" disallow="pedestrian tram rail_urban rail rail_electric rail_fast ship" speed="36.11" length="70.00" width="3.50" customShape="1" shape="-61.40,55.73 -60.16,57.22 -55.93,62.03 -51.74,66.23 -45.16,72.28 -37.18,79.05 -18.39,94.02 -9.06,101.70 -8.90,101.84"/>
    </edge>
    <edge id="358" from="26" to="32" priority="3" type="highway.residential" spreadType="center" length="70.00" shape="-11.67,104.08 -66.78,49.57">
        <lane id="358_0" index="0" disallow="pedestrian tram rail_urban rail rail_electric rail_fast ship" speed="36.11" length="70.00" width="3.50" customShape="1" shape="-11.67,104.08 -20.58,96.75 -39.41,81.75 -47.47,74.90 -54.17,68.75 -58.49,64.42 -62.83,59.48 -64.12,57.92"/>
    </edge>
    <edge id="360" from="32" to="29" priority="3" type="highway.residential" spreadType="center" length="170.16" shape="-65.68,46.61 85.72,35.45">
        <lane id="360_0" index="0" disallow="pedestrian tram rail_urban rail rail_electric rail_fast ship" speed="36.11" length="170.16" width="3.50" customShape="1" shape="-62.02,43.21 -59.04,41.17 -55.73,39.29 -52.27,37.68 -47.70,35.99 -44.03,35.01 -39.36,34.23 -34.73,33.65 -31.51,33.56 -28.79,33.81 -26.08,34.41 -23.49,35.32 -20.57,36.70 -14.78,40.10 -9.07,43.23 1.92,49.43 11.96,55.40 19.61,60.53 26.74,65.28 31.47,68.03 35.46,69.99 40.08,71.85 43.33,72.83 45.65,73.26 47.99,73.42 49.90,73.32 51.25,73.05 52.52,72.60 53.71,71.97 54.75,71.17 55.68,70.20 58.48,66.47 81.51,40.72"/>
    </edge>
    <edge id="361" from="29" to="32" priority="3" type="highway.residential" spreadType="center" length="171.01" shape="85.98,38.94 -65.42,50.10">
        <lane id="361_0" index="0" disallow="pedestrian tram rail_urban rail rail_electric rail_fast ship" speed="36.11" length="171.01" width="3.50" customShape="1" shape="84.12,43.05 61.22,68.65 58.32,72.50 57.04,73.81 55.54,74.95 53.87,75.83 52.11,76.44 50.30,76.79 47.94,76.92 45.19,76.72 42.49,76.22 38.91,75.14 34.03,73.18 29.81,71.11 24.88,68.25 17.65,63.43 10.09,58.36 0.16,52.46 -10.75,46.30 -16.54,43.12 -22.20,39.80 -24.81,38.56 -27.02,37.78 -29.31,37.27 -31.61,37.06 -34.45,37.13 -38.84,37.69 -43.28,38.43 -46.62,39.32 -50.92,40.91 -54.12,42.39 -57.18,44.13 -60.05,46.10"/>
    </edge>
    <edge id="390" from="23" to="32" priority="3" type="highway.residential" spreadType="center" length="70.04" shape="-112.30,-11.69 -64.15,47.27">
        <lane id="390_0" index="0" disallow="pedestrian tram rail_urban rail rail_electric rail_fast ship" speed="36.11" length="70.04" width="3.50" customShape="1" shape="-112.30,-11.69 -109.95,-11.02 -106.88,-9.84 -104.41,-8.56 -102.11,-6.99 -99.99,-5.16 -97.74,-2.72 -95.49,0.33 -93.54,3.46 -91.66,7.16 -87.92,15.97 -85.84,20.40 -83.40,24.70 -79.40,31.02 -71.37,42.61"/>
    </edge>
    <edge id="391" from="32" to="14" priority="3" type="highway.residential" spreadType="center" length="70.00" shape="-66.84,49.50 -115.56,-8.85">
        <lane id="391_0" index="0" disallow="pedestrian tram rail_urban rail rail_electric rail_fast ship" speed="36.11" length="70.00" width="3.50" customShape="1" shape="-74.24,44.60 -82.31,32.96 -86.41,26.50 -88.96,22.00 -91.12,17.38 -94.83,8.64 -96.59,5.19 -98.38,2.30 -100.43,-0.49 -102.40,-2.63 -104.23,-4.21 -106.19,-5.55 -108.29,-6.64 -111.04,-7.69 -114.36,-8.64 -115.56,-8.85"/>
    </edge>

    <junction id="14" type="dead_end" x="-115.56" y="-8.85" incLanes="391_0" intLanes="" shape="-115.86,-7.13 -115.26,-10.57" rightOfWay="edgePriority"/>
    <junction id="15" type="dead_end" x="153.77" y="77.59" incLanes="311_0" intLanes="" shape="154.73,76.12 152.81,79.05" rightOfWay="edgePriority"/>
    <junction id="19" type="dead_end" x="-166.17" y="-178.83" incLanes="" intLanes="" shape="-164.50,-178.32 -167.84,-179.35" rightOfWay="edgePriority"/>
    <junction id="21" type="dead_end" x="151.80" y="80.48" incLanes="" intLanes="" shape="152.76,79.02 150.85,81.95" rightOfWay="edgePriority"/>
    <junction id="23" type="dead_end" x="-112.30" y="-11.69" incLanes="" intLanes="" shape="-112.78,-10.00 -111.83,-13.37" rightOfWay="edgePriority"/>
    <junction id="25" type="dead_end" x="-135.19" y="-260.68" incLanes="" intLanes="" shape="-136.44,-260.97 -133.94,-260.39" rightOfWay="edgePriority"/>
    <junction id="26" type="dead_end" x="-11.67" y="104.08" incLanes="" intLanes="" shape="-10.56,102.73 -12.79,105.43" rightOfWay="edgePriority"/>
    <junction id="29" type="priority" x="85.85" y="37.20" incLanes="310_0 308_0 360_0" intLanes=":29_0_0 :29_1_0 :29_2_0 :29_3_0 :29_4_0 :29_5_0" shape="93.34,41.80 97.39,36.10 94.09,33.80 91.57,32.20 89.41,31.04 87.15,30.04 84.36,28.94 80.61,27.47 78.03,33.98 80.62,35.53 81.22,36.42 81.35,37.39 81.01,38.43 80.21,39.55 85.42,44.22 86.86,42.79 88.26,41.76 89.60,41.15 90.90,40.96 92.14,41.17">
        <request index="0" response="000000" foes="001000" cont="0"/>
        <request index="1" response="000000" foes="111000" cont="0"/>
        <request index="2" response="000000" foes="100000" cont="0"/>
        <request index="3" response="000011" foes="100011" cont="0"/>
        <request index="4" response="000010" foes="000010" cont="0"/>
        <request index="5" response="001110" foes="001110" cont="0"/>
    </junction>
    <junction id="3" type="dead_end" x="-8.90" y="101.84" incLanes="357_0" intLanes="" shape="-7.74,100.53 -10.06,103.15" rightOfWay="edgePriority"/>
    <junction id="30" type="priority" x="-136.73" y="-248.21" incLanes="307_0 211_0 209_0" intLanes=":30_0_0 :30_1_0 :30_2_0 :30_3_0 :30_4_0 :30_5_0" shape="-134.21,-246.15 -128.79,-250.55 -133.67,-261.57 -139.07,-263.53 -137.61,-263.84 -140.84,-261.44 -145.46,-245.73 -138.89,-243.34 -137.41,-246.28 -136.64,-246.99 -135.85,-247.21 -135.04,-246.93">
        <request index="0" response="001000" foes="001000" cont="0"/>
        <request index="1" response="111000" foes="111000" cont="0"/>
        <request index="2" response="000000" foes="100000" cont="0"/>
        <request index="3" response="000000" foes="100011" cont="0"/>
        <request index="4" response="000000" foes="000010" cont="0"/>
        <request index="5" response="001100" foes="001110" cont="0"/>
    </junction>
    <junction id="31" type="dead_end" x="-139.79" y="-256.43" incLanes="1161_0 1045_0" intLanes="" shape="-141.28,-256.56 -138.29,-256.29 -141.42,-257.01 -138.16,-255.84"/>
    <junction id="32" type="priority" x="-65.53" y="48.35" incLanes="358_0 361_0 390_0" intLanes=":32_0_0 :32_1_0 :32_2_0 :32_3_0 :32_4_0 :32_5_0" shape="-65.43,59.08 -60.05,54.61 -61.44,52.02 -61.49,50.81 -61.11,49.66 -60.30,48.57 -59.06,47.54 -63.01,41.77 -65.83,43.16 -67.05,43.31 -68.14,43.11 -69.10,42.54 -69.93,41.62 -75.68,45.60">
        <request index="0" response="000000" foes="001000" cont="0"/>
        <request index="1" response="110000" foes="111000" cont="0"/>
        <request index="2" response="100000" foes="100000" cont="0"/>
        <request index="3" response="100011" foes="100011" cont="0"/>
        <request index="4" response="000000" foes="000010" cont="0"/>
        <request index="5" response="000000" foes="001110" cont="0"/>
    </junction>
    <junction id="5" type="dead_end" x="-162.88" y="-177.62" incLanes="208_0" intLanes="" shape="-161.21,-177.11 -164.56,-178.14" rightOfWay="edgePriority"/>

    <connection from="209" to="1045" fromLane="0" toLane="0" contPos="-4.00" via=":30_4_0" dir="s" state="M"/>
    <connection from="209" to="308" fromLane="0" toLane="0" contPos="-4.00" shape="-143.81,-245.15 -142.82,-247.57 -141.58,-249.87 -140.53,-251.26 -139.24,-252.43 -138.48,-252.87 -137.67,-253.16 -136.80,-253.28 -135.93,-253.25 -135.09,-253.04 -133.51,-252.32 -132.09,-251.30 -130.17,-249.47" via=":30_5_0" dir="l" state="m"/>
    <connection from="211" to="308" fromLane="0" toLane="0" contPos="-4.00" shape="-136.46,-255.43 -136.41,-254.98 -136.31,-254.55 -136.15,-254.12 -135.93,-253.72 -135.66,-253.34 -135.35,-252.98 -135.00,-252.66 -134.62,-252.36 -134.22,-252.09 -133.81,-251.83 -133.39,-251.59 -132.96,-251.36 -132.53,-251.13 -132.11,-250.90 -131.69,-250.65 -131.28,-250.40 -130.89,-250.12 -130.52,-249.81 -130.17,-249.47" via=":30_2_0" dir="r" state="M"/>
    <connection from="211" to="208" fromLane="0" toLane="0" contPos="-4.00" shape="-136.46,-255.43 -138.49,-249.70 -140.53,-243.94" via=":30_3_0" dir="s" state="M"/>
    <connection from="307" to="208" fromLane="0" toLane="0" contPos="-4.00" shape="-132.70,-247.06 -133.13,-247.49 -133.58,-247.92 -134.04,-248.33 -134.52,-248.71 -135.05,-249.03 -135.61,-249.27 -136.21,-249.39 -136.80,-249.32 -137.35,-249.08 -137.83,-248.71 -138.26,-248.27 -138.64,-247.79 -138.98,-247.28 -139.29,-246.75 -139.58,-246.20 -139.84,-245.65 -140.08,-245.08 -140.31,-244.51 -140.53,-243.94" via=":30_0_0" dir="r" state="m"/>
    <connection from="307" to="1161" fromLane="0" toLane="0" contPos="-4.00" via=":30_1_0" dir="s" state="m"/>
    <connection from="308" to="311" fromLane="0" toLane="0" contPos="-4.00" shape="80.00,29.11 85.84,31.60 90.57,33.96 94.67,36.37 96.38,37.52" via=":29_2_0" dir="s" state="M"/>
    <connection from="308" to="361" fromLane="0" toLane="0" contPos="-4.00" shape="80.00,29.11 82.21,30.11 84.27,31.36 85.50,32.40 86.52,33.65 86.91,34.35 87.17,35.12 87.32,35.91 87.35,36.71 87.26,37.51 86.79,39.05 86.05,40.48 84.65,42.44 84.12,43.05" via=":29_3_0" dir="l" state="m"/>
    <connection from="310" to="361" fromLane="0" toLane="0" contPos="-4.00" shape="94.41,40.42 93.17,39.71 92.29,39.39 91.36,39.21 90.42,39.20 89.48,39.34 88.15,39.82 86.92,40.53 85.80,41.39 84.44,42.71 84.12,43.05" via=":29_0_0" dir="R" state="M"/>
    <connection from="310" to="307" fromLane="0" toLane="0" contPos="-4.00" shape="94.41,40.42 92.77,39.31 88.87,37.02 84.36,34.77 78.68,32.35" via=":29_1_0" dir="s" state="M"/>
    <connection from="358" to="391" fromLane="0" toLane="0" contPos="-4.00" shape="-64.12,57.92 -69.63,50.94 -74.24,44.60" via=":32_0_0" dir="s" state="M"/>
    <connection from="358" to="360" fromLane="0" toLane="0" contPos="-4.00" shape="-64.12,57.92 -65.40,56.17 -66.40,54.27 -66.84,52.90 -67.05,51.48 -66.98,50.05 -66.62,48.66 -66.00,47.37 -64.73,45.63 -63.19,44.13 -62.02,43.21" via=":32_1_0" dir="l" state="m"/>
    <connection from="360" to="307" fromLane="0" toLane="0" contPos="-4.00" shape="81.51,40.72 81.90,40.26 82.28,39.79 82.63,39.29 82.95,38.77 83.23,38.23 83.45,37.66 83.59,37.07 83.59,36.47 83.45,35.88 83.17,35.34 82.80,34.86 82.37,34.43 81.90,34.05 81.40,33.70 80.88,33.39 80.34,33.10 79.79,32.83 79.24,32.58 78.68,32.35" via=":29_4_0" dir="r" state="m"/>
    <connection from="360" to="311" fromLane="0" toLane="0" contPos="-4.00" shape="81.51,40.72 81.96,40.23 83.75,38.53 85.33,37.37 87.10,36.42 89.07,35.81 90.51,35.64 91.94,35.71 93.35,36.02 94.67,36.53 96.38,37.52" via=":29_5_0" dir="s" state="m"/>
    <connection from="361" to="357" fromLane="0" toLane="0" contPos="-4.00" shape="-59.98,46.06 -60.81,46.71 -61.93,47.78 -62.80,48.97 -63.17,49.74 -63.39,50.57 -63.44,51.40 -63.32,52.25 -63.04,53.11 -62.34,54.44 -61.40,55.73" via=":32_2_0" dir="r" state="m"/>
    <connection from="361" to="391" fromLane="0" toLane="0" contPos="-4.00" shape="-59.98,46.06 -62.42,47.59 -64.39,48.44 -65.78,48.81 -67.20,48.93 -68.63,48.78 -69.99,48.35 -71.25,47.66 -72.37,46.77 -73.81,45.18 -74.24,44.60" via=":32_3_0" dir="l" state="m"/>
    <connection from="390" to="360" fromLane="0" toLane="0" contPos="-4.00" shape="-71.39,42.58 -71.05,43.03 -70.68,43.48 -70.29,43.90 -69.86,44.28 -69.40,44.62 -68.90,44.91 -68.37,45.13 -67.82,45.27 -67.25,45.32 -66.68,45.31 -66.11,45.23 -65.55,45.09 -65.01,44.91 -64.48,44.69 -63.96,44.44 -63.46,44.16 -62.97,43.86 -62.49,43.55 -62.02,43.21" via=":32_4_0" dir="r" state="M"/>
    <connection from="390" to="357" fromLane="0" toLane="0" contPos="-4.00" shape="-71.39,42.58 -66.84,48.83 -61.40,55.73" via=":32_5_0" dir="s" state="M"/>

    <connection from=":29_0" to="361" fromLane="0" toLane="0" dir="R" state="M"/>
    <connection from=":29_1" to="307" fromLane="0" toLane="0" dir="s" state="M"/>
    <connection from=":29_2" to="311" fromLane="0" toLane="0" dir="s" state="M"/>
    <connection from=":29_3" to="361" fromLane="0" toLane="0" dir="l" state="M"/>
    <connection from=":29_4" to="307" fromLane="0" toLane="0" dir="r" state="M"/>
    <connection from=":29_5" to="311" fromLane="0" toLane="0" dir="s" state="M"/>
    <connection from=":30_0" to="208" fromLane="0" toLane="0" dir="r" state="M"/>
    <connection from=":30_1" to="1161" fromLane="0" toLane="0" dir="s" state="M"/>
    <connection from=":30_2" to="308" fromLane="0" toLane="0" dir="r" state="M"/>
    <connection from=":30_3" to="208" fromLane="0" toLane="0" dir="s" state="M"/>
    <connection from=":30_4" to="1045" fromLane="0" toLane="0" dir="s" state="M"/>
    <connection from=":30_5" to="308" fromLane="0" toLane="0" dir="l" state="M"/>
    <connection from=":32_0" to="391" fromLane="0" toLane="0" dir="s" state="M"/>