<!-- generated on Tue Feb  9 22:22:54 2021 by Eclipse SUMO netconvert Version 1.8.0
<configuration xmlns:xsi="http://www.w3.org/2001/XMLSchema-instance" xsi:noNamespaceSchemaLocation="http://sumo.dlr.de/xsd/netconvertConfiguration.xsd">

    <input>
        <node-files value="./converted_scenarios/scenario-factory/HRV_Pula-22_1_I-1-1/HRV_Pula-22_1_I-1-1.nod.xml"/>
        <edge-files value="./converted_scenarios/scenario-factory/HRV_Pula-22_1_I-1-1/HRV_Pula-22_1_I-1-1.edg.xml"/>
        <connection-files value="./converted_scenarios/scenario-factory/HRV_Pula-22_1_I-1-1/HRV_Pula-22_1_I-1-1.con.xml"/>
        <tllogic-files value="./converted_scenarios/scenario-factory/HRV_Pula-22_1_I-1-1/HRV_Pula-22_1_I-1-1.tll.xml"/>
        <type-files value="/home/zen/commonroad-interactive-benchmarks/install/commonroad-map-tool/crmapconverter/sumo_map/templates/DEU.typ.xml"/>
    </input>

    <output>
        <output-file value="./converted_scenarios/scenario-factory/HRV_Pula-22_1_I-1-1/HRV_Pula-22_1_I-1-1.net.xml"/>
    </output>

    <processing>
        <geometry.remove.keep-edges.explicit value="true"/>
        <geometry.avoid-overlap value="true"/>
        <offset.disable-normalization value="true"/>
    </processing>

    <junctions>
        <no-turnarounds value="true"/>
        <junctions.internal-link-detail value="20"/>
    </junctions>

    <report>
        <aggregate-warnings value="5"/>
    </report>

    <random_number>
        <seed value="1234"/>
    </random_number>

</configuration>
--><net xmlns:xsi="http://www.w3.org/2001/XMLSchema-instance" version="1.6" junctionCornerDetail="5" junctionLinkDetail="20" limitTurnSpeed="5.50" xsi:noNamespaceSchemaLocation="http://sumo.dlr.de/xsd/net_file.xsd">

    <location netOffset="0.00,0.00" convBoundary="514.62,79.46,793.29,335.19" origBoundary="514.62,32.33,793.29,335.19" projParameter="!"/>

    <type id="highway.bridleway" priority="1" speed="2.78" allow="pedestrian" oneway="1" width="2.00"/>
    <type id="highway.bus_guideway" priority="1" speed="27.78" allow="bus" oneway="1"/>
    <type id="highway.cycleway" priority="1" speed="8.33" allow="bicycle" oneway="0" width="1.00"/>
    <type id="highway.footway" priority="1" speed="2.78" allow="pedestrian" oneway="1" width="2.00"/>
    <type id="highway.ford" priority="1" speed="2.78" allow="army" oneway="0"/>
    <type id="highway.living_street" priority="2" speed="2.78" disallow="tram rail_urban rail rail_electric rail_fast ship" oneway="0"/>
    <type id="highway.motorway" priority="14" speed="39.44" allow="private emergency authority army vip passenger hov taxi bus coach delivery truck trailer motorcycle evehicle custom1 custom2" oneway="1"/>
    <type id="highway.motorway_link" priority="9" speed="22.22" allow="private emergency authority army vip passenger hov taxi bus coach delivery truck trailer motorcycle evehicle custom1 custom2" oneway="1"/>
    <type id="highway.path" priority="1" speed="2.78" allow="pedestrian bicycle" oneway="0" width="2.00"/>
    <type id="highway.pedestrian" priority="1" speed="2.78" allow="pedestrian" oneway="1" width="2.00"/>
    <type id="highway.primary" priority="12" speed="27.78" disallow="pedestrian tram rail_urban rail rail_electric rail_fast ship" oneway="0"/>
    <type id="highway.primary_link" priority="7" speed="22.22" disallow="pedestrian tram rail_urban rail rail_electric rail_fast ship" oneway="0"/>
    <type id="highway.raceway" priority="15" speed="83.33" allow="vip" oneway="0"/>
    <type id="highway.residential" priority="3" speed="13.89" disallow="pedestrian tram rail_urban rail rail_electric rail_fast ship" oneway="0"/>
    <type id="highway.secondary" priority="11" speed="27.78" disallow="pedestrian tram rail_urban rail rail_electric rail_fast ship" oneway="0"/>
    <type id="highway.secondary_link" priority="6" speed="22.22" disallow="pedestrian tram rail_urban rail rail_electric rail_fast ship" oneway="0"/>
    <type id="highway.service" priority="1" speed="5.56" allow="pedestrian delivery bicycle" oneway="0"/>
    <type id="highway.stairs" priority="1" speed="1.39" allow="pedestrian" oneway="1" width="2.00"/>
    <type id="highway.step" priority="1" speed="1.39" allow="pedestrian" oneway="1" width="2.00"/>
    <type id="highway.steps" priority="1" speed="1.39" allow="pedestrian" oneway="1" width="2.00"/>
    <type id="highway.tertiary" priority="10" speed="22.22" disallow="pedestrian tram rail_urban rail rail_electric rail_fast ship" oneway="0"/>
    <type id="highway.tertiary_link" priority="5" speed="22.22" disallow="pedestrian tram rail_urban rail rail_electric rail_fast ship" oneway="0"/>
    <type id="highway.track" priority="1" speed="5.56" allow="pedestrian motorcycle moped bicycle" oneway="0"/>
    <type id="highway.trunk" priority="13" speed="27.78" disallow="pedestrian bicycle tram rail_urban rail rail_electric rail_fast ship" oneway="0"/>
    <type id="highway.trunk_link" priority="8" speed="22.22" disallow="pedestrian bicycle tram rail_urban rail rail_electric rail_fast ship" oneway="0"/>
    <type id="highway.unclassified" priority="4" speed="13.89" disallow="pedestrian tram rail_urban rail rail_electric rail_fast ship" oneway="0"/>
    <type id="highway.unsurfaced" priority="1" speed="8.33" disallow="tram rail_urban rail rail_electric rail_fast ship" oneway="0"/>
    <type id="railway.highspeed" priority="21" speed="69.44" allow="rail_fast" oneway="1"/>
    <type id="railway.light_rail" priority="19" speed="27.78" allow="rail_urban" oneway="1"/>
    <type id="railway.preserved" priority="16" speed="27.78" allow="rail" oneway="1"/>
    <type id="railway.rail" priority="20" speed="44.44" allow="rail" oneway="1"/>
    <type id="railway.subway" priority="18" speed="27.78" allow="rail_urban" oneway="1"/>
    <type id="railway.tram" priority="17" speed="13.89" allow="tram" oneway="1"/>

    <edge id=":81_0" function="internal">
        <lane id=":81_0_0" index="0" disallow="pedestrian tram rail_urban rail rail_electric rail_fast ship" speed="36.11" length="38.92" width="3.50" shape="568.20,235.57 558.62,205.31 556.50,198.45"/>
    </edge>
    <edge id=":81_1" function="internal">
        <lane id=":81_1_0" index="0" disallow="pedestrian tram rail_urban rail rail_electric rail_fast ship" speed="12.12" length="33.95" width="3.50" shape="568.20,235.57 567.51,233.14 566.99,230.65 566.71,228.08 566.73,225.46 567.09,222.87 567.45,221.53 567.90,220.26 568.47,219.03 569.14,217.86 569.91,216.75 570.77,215.72 571.73,214.74 573.74,213.09 575.94,211.70 578.25,210.55 581.79,209.23"/>
    </edge>
    <edge id=":81_2" function="internal">
        <lane id=":81_2_0" index="0" disallow="pedestrian tram rail_urban rail rail_electric rail_fast ship" speed="11.11" length="28.35" width="3.50" shape="582.84,212.56 579.78,213.71 577.83,214.68 575.98,215.84 574.30,217.23 573.54,218.01 572.84,218.85 572.22,219.74 571.67,220.69 571.22,221.68 570.85,222.70 570.57,223.76 570.26,225.91 570.25,228.09 570.49,230.26 570.93,232.40 571.53,234.50"/>
    </edge>
    <edge id=":81_3" function="internal">
        <lane id=":81_3_0" index="0" disallow="pedestrian tram rail_urban rail rail_electric rail_fast ship" speed="12.17" length="34.35" width="3.50" shape="582.84,212.56 579.01,213.56 576.39,213.95 573.75,214.06 571.12,213.84 569.83,213.58 568.56,213.21 567.32,212.74 566.13,212.16 565.00,211.48 563.94,210.70 562.94,209.83 561.16,207.88 559.65,205.71 558.40,203.39 557.36,200.96 556.50,198.45"/>
    </edge>
    <edge id=":81_4" function="internal">
        <lane id=":81_4_0" index="0" disallow="pedestrian tram rail_urban rail rail_electric rail_fast ship" speed="11.17" length="28.75" width="3.50" shape="559.84,197.41 560.59,199.61 561.49,201.70 562.55,203.68 563.81,205.50 565.29,207.13 566.08,207.81 566.93,208.43 567.84,208.98 568.78,209.45 569.77,209.82 570.80,210.12 571.82,210.33 574.02,210.52 576.23,210.42 578.45,210.09 581.79,209.23"/>
    </edge>
    <edge id=":81_5" function="internal">
        <lane id=":81_5_0" index="0" disallow="pedestrian tram rail_urban rail rail_electric rail_fast ship" speed="36.11" length="38.89" width="3.50" shape="559.84,197.41 561.96,204.27 571.53,234.50"/>
    </edge>
    <edge id=":82_0" function="internal">
        <lane id=":82_0_0" index="0" disallow="pedestrian tram rail_urban rail rail_electric rail_fast ship" speed="11.27" length="28.65" width="3.50" shape="652.66,150.15 651.91,148.09 650.99,146.08 649.89,144.17 648.57,142.40 647.02,140.83 646.15,140.14 645.23,139.53 644.27,138.99 643.26,138.55 642.21,138.18 640.06,137.71 637.86,137.54 635.65,137.63 633.46,137.94 630.28,138.71"/>
    </edge>
    <edge id=":82_1" function="internal">
        <lane id=":82_1_0" index="0" disallow="pedestrian tram rail_urban rail rail_electric rail_fast ship" speed="36.11" length="45.09" width="3.50" shape="652.66,150.15 645.73,128.70 638.81,107.24"/>
    </edge>
    <edge id=":82_2" function="internal">
        <lane id=":82_2_0" index="0" disallow="pedestrian tram rail_urban rail rail_electric rail_fast ship" speed="16.85" length="42.68" width="3.50" shape="652.66,150.15 652.02,147.91 651.39,144.47 651.17,140.96 651.38,137.45 651.99,134.00 652.98,130.65 654.30,127.43 655.90,124.37 657.72,121.45 659.73,118.68 662.63,115.20 665.73,111.94"/>
    </edge>
    <edge id=":82_3" function="internal">
        <lane id=":82_3_0" index="0" disallow="pedestrian tram rail_urban rail rail_electric rail_fast ship" speed="16.08" length="38.82" width="3.50" shape="668.19,114.43 665.30,117.46 662.61,120.68 660.75,123.22 659.07,125.89 657.60,128.67 656.38,131.58 655.46,134.59 654.89,137.69 654.68,140.83 654.86,143.97 655.42,147.07 655.99,149.08"/>
    </edge>
    <edge id=":82_4" function="internal">
        <lane id=":82_4_0" index="0" disallow="pedestrian tram rail_urban rail rail_electric rail_fast ship" speed="33.36" length="45.47" width="3.50" shape="668.20,114.43 662.84,119.46 658.00,123.54 652.95,127.35 648.54,130.29 643.97,132.97 639.21,135.34 634.30,137.37 630.28,138.71"/>
    </edge>
    <edge id=":82_5" function="internal">
        <lane id=":82_5_0" index="0" disallow="pedestrian tram rail_urban rail rail_electric rail_fast ship" speed="11.36" length="40.13" width="3.50" shape="668.20,114.43 664.97,117.36 662.60,119.16 660.06,120.73 658.65,121.42 657.19,121.99 655.64,122.41 654.02,122.65 652.35,122.66 650.68,122.39 649.07,121.85 647.59,121.07 646.26,120.11 645.09,119.02 644.05,117.84 643.12,116.58 641.59,114.02 640.32,111.32 638.81,107.24"/>
    </edge>
    <edge id=":82_6" function="internal">
        <lane id=":82_6_0" index="0" disallow="pedestrian tram rail_urban rail rail_electric rail_fast ship" speed="10.28" length="32.57" width="3.50" shape="642.14,106.16 643.44,109.68 644.51,111.95 645.80,114.10 646.54,115.11 647.37,116.05 648.29,116.91 649.30,117.64 650.41,118.23 651.60,118.63 652.83,118.82 654.09,118.82 655.33,118.64 656.54,118.30 657.71,117.85 658.83,117.30 660.97,115.98 662.96,114.46 665.73,111.94"/>
    </edge>
    <edge id=":82_7" function="internal">
        <lane id=":82_7_0" index="0" disallow="pedestrian tram rail_urban rail rail_electric rail_fast ship" speed="36.11" length="45.10" width="3.50" shape="642.14,106.16 649.07,127.62 655.99,149.08"/>
    </edge>
    <edge id=":82_8" function="internal">
        <lane id=":82_8_0" index="0" disallow="pedestrian tram rail_urban rail rail_electric rail_fast ship" speed="13.00" length="39.64" width="3.50" shape="642.14,106.16 643.17,109.68 643.98,113.29 644.49,116.98 644.61,119.51 644.52,122.05 644.16,124.61 643.48,127.13 642.45,129.52 641.77,130.71 641.01,131.80 640.17,132.83 639.22,133.81 637.21,135.45 634.99,136.82 632.65,137.89 630.28,138.71"/>
    </edge>
    <edge id=":82_9" function="internal">
        <lane id=":82_9_0" index="0" disallow="pedestrian tram rail_urban rail rail_electric rail_fast ship" speed="12.06" length="34.00" width="3.50" shape="629.27,135.36 631.33,134.65 633.32,133.72 635.18,132.56 636.85,131.14 637.60,130.33 638.28,129.47 638.88,128.55 639.41,127.59 640.23,125.55 640.76,123.42 641.02,121.24 641.07,119.05 640.94,116.86 640.46,113.60 639.74,110.39 638.81,107.24"/>
    </edge>
    <edge id=":82_10" function="internal">
        <lane id=":82_10_0" index="0" disallow="pedestrian tram rail_urban rail rail_electric rail_fast ship" speed="32.73" length="43.76" width="3.50" shape="629.27,135.36 633.12,134.08 637.82,132.13 642.38,129.85 646.77,127.27 651.00,124.44 655.88,120.76 660.55,116.81 665.73,111.94"/>
    </edge>
    <edge id=":82_11" function="internal">
        <lane id=":82_11_0" index="0" disallow="pedestrian tram rail_urban rail rail_electric rail_fast ship" speed="12.27" length="34.17" width="3.50" shape="629.27,135.36 632.95,134.47 635.52,134.11 638.13,134.01 640.77,134.21 643.36,134.78 644.67,135.24 645.91,135.79 647.10,136.46 648.23,137.21 649.31,138.08 651.17,139.97 652.75,142.09 654.05,144.35 655.12,146.69 655.99,149.08"/>
    </edge>
    <edge id=":83_0" function="internal">
        <lane id=":83_0_0" index="0" disallow="pedestrian tram rail_urban rail rail_electric rail_fast ship" speed="11.24" length="28.80" width="3.50" shape="669.84,203.43 669.06,201.25 668.12,199.18 667.01,197.23 665.71,195.46 664.18,193.88 663.37,193.23 662.49,192.63 661.56,192.12 660.60,191.68 659.59,191.33 658.55,191.07 657.52,190.88 655.30,190.73 653.07,190.86 650.85,191.21 647.50,192.08"/>
    </edge>
    <edge id=":83_1" function="internal">
        <lane id=":83_1_0" index="0" disallow="pedestrian tram rail_urban rail rail_electric rail_fast ship" speed="36.11" length="39.12" width="3.50" shape="669.84,203.43 663.83,184.80 657.83,166.20"/>
    </edge>
    <edge id=":83_2" function="internal">
        <lane id=":83_2_0" index="0" disallow="pedestrian tram rail_urban rail rail_electric rail_fast ship" speed="13.10" length="33.72" width="3.50" shape="669.84,203.43 669.17,201.01 668.72,198.55 668.54,196.06 668.66,193.56 669.11,191.11 669.90,188.74 671.02,186.51 672.42,184.44 674.06,182.55 675.88,180.84 678.87,178.59 682.08,176.65 683.17,176.07"/>
    </edge>
    <edge id=":83_3" function="internal">
        <lane id=":83_3_0" index="0" disallow="pedestrian tram rail_urban rail rail_electric rail_fast ship" speed="12.15" length="28.88" width="3.50" shape="684.88,179.12 683.82,179.69 680.96,181.40 678.33,183.38 676.77,184.83 675.37,186.42 674.18,188.15 673.24,189.99 672.57,191.94 672.18,193.97 672.06,196.05 672.21,198.16 672.59,200.26 673.17,202.36"/>
    </edge>
    <edge id=":83_4" function="internal">
        <lane id=":83_4_0" index="0" disallow="pedestrian tram rail_urban rail rail_electric rail_fast ship" speed="36.11" length="39.58" width="3.50" shape="684.88,179.12 683.75,179.67 678.88,181.62 668.12,185.39 647.50,192.08"/>
    </edge>
    <edge id=":83_5" function="internal">
        <lane id=":83_5_0" index="0" disallow="pedestrian tram rail_urban rail rail_electric rail_fast ship" speed="11.63" length="35.70" width="3.50" shape="684.88,179.12 683.58,179.77 681.13,180.78 678.55,181.57 675.87,182.02 674.43,182.10 673.02,182.04 671.60,181.85 670.20,181.50 668.85,181.00 667.56,180.37 666.35,179.60 665.23,178.73 664.20,177.78 663.25,176.73 661.65,174.57 660.31,172.25 659.18,169.84 657.83,166.20"/>
    </edge>
    <edge id=":83_6" function="internal">
        <lane id=":83_6_0" index="0" disallow="pedestrian tram rail_urban rail rail_electric rail_fast ship" speed="10.58" length="29.36" width="3.50" shape="661.16,165.12 662.33,168.29 663.28,170.34 664.41,172.30 665.74,174.13 666.50,174.97 667.32,175.75 668.20,176.45 669.15,177.07 670.16,177.58 671.21,177.98 672.31,178.27 673.42,178.43 674.55,178.49 675.68,178.44 677.91,178.08 680.08,177.43 682.17,176.56 683.17,176.07"/>
    </edge>
    <edge id=":83_7" function="internal">
        <lane id=":83_7_0" index="0" disallow="pedestrian tram rail_urban rail rail_electric rail_fast ship" speed="36.11" length="39.13" width="3.50" shape="661.16,165.12 667.16,183.72 673.17,202.36"/>
    </edge>
    <edge id=":83_8" function="internal">
        <lane id=":83_8_0" index="0" disallow="pedestrian tram rail_urban rail rail_electric rail_fast ship" speed="12.23" length="34.62" width="3.50" shape="661.16,165.12 661.86,167.58 662.39,170.12 662.69,172.74 662.70,175.40 662.35,178.05 662.02,179.41 661.57,180.71 661.01,181.97 660.34,183.18 659.57,184.32 658.71,185.39 657.74,186.40 655.71,188.10 653.47,189.54 651.11,190.72 647.50,192.08"/>
    </edge>
    <edge id=":83_9" function="internal">
        <lane id=":83_9_0" index="0" disallow="pedestrian tram rail_urban rail rail_electric rail_fast ship" speed="11.23" length="29.01" width="3.50" shape="646.44,188.75 649.58,187.57 651.57,186.57 653.45,185.36 655.16,183.92 655.93,183.11 656.63,182.24 657.25,181.32 657.79,180.34 658.25,179.32 658.61,178.26 658.88,177.18 659.16,174.96 659.15,172.73 658.90,170.51 658.44,168.33 657.83,166.20"/>
    </edge>
    <edge id=":83_10" function="internal">
        <lane id=":83_10_0" index="0" disallow="pedestrian tram rail_urban rail rail_electric rail_fast ship" speed="36.11" length="38.87" width="3.50" shape="646.44,188.75 666.88,182.12 677.51,178.40 682.26,176.50 683.17,176.07"/>
    </edge>
    <edge id=":83_11" function="internal">
        <lane id=":83_11_0" index="0" disallow="pedestrian tram rail_urban rail rail_electric rail_fast ship" speed="12.24" length="34.37" width="3.50" shape="646.44,188.75 650.28,187.75 652.89,187.34 655.53,187.19 658.16,187.37 659.46,187.60 660.74,187.93 661.99,188.36 663.20,188.91 664.35,189.55 665.44,190.29 666.47,191.13 668.31,193.02 669.88,195.15 671.18,197.45 672.27,199.85 673.17,202.36"/>
    </edge>
    <edge id=":84_0" function="internal">
        <lane id=":84_0_0" index="0" disallow="pedestrian tram rail_urban rail rail_electric rail_fast ship" speed="13.25" length="27.48" width="3.50" shape="745.01,135.30 742.88,134.84 740.79,134.61 738.68,134.62 736.59,134.87 734.54,135.36 732.56,136.08 730.66,137.01 728.87,138.11 726.36,140.04 724.07,142.22 721.97,144.58 721.31,145.41"/>
    </edge>
    <edge id=":84_1" function="internal">
        <lane id=":84_1_0" index="0" disallow="pedestrian tram rail_urban rail rail_electric rail_fast ship" speed="12.23" length="31.20" width="3.50" shape="745.01,135.31 742.48,134.46 740.16,133.30 739.08,132.58 738.07,131.77 737.14,130.87 736.29,129.89 735.55,128.83 734.90,127.70 734.35,126.53 733.52,124.07 733.02,121.53 732.79,118.94 732.85,115.05 733.27,111.18 733.48,109.90"/>
    </edge>
    <edge id=":84_2" function="internal">
        <lane id=":84_2_0" index="0" disallow="pedestrian tram rail_urban rail rail_electric rail_fast ship" speed="11.13" length="26.04" width="3.50" shape="736.94,110.37 736.75,111.61 736.36,115.03 736.29,118.43 736.46,120.62 736.85,122.76 737.49,124.83 737.91,125.75 738.40,126.66 738.97,127.51 739.62,128.30 740.33,129.03 741.12,129.68 741.93,130.25 743.82,131.22 745.86,131.91"/>
    </edge>
    <edge id=":84_3" function="internal">
        <lane id=":84_3_0" index="0" disallow="pedestrian tram rail_urban rail rail_electric rail_fast ship" speed="27.36" length="38.77" width="3.50" shape="736.94,110.37 735.84,115.75 734.39,120.92 732.58,125.97 730.42,130.88 727.92,135.63 725.09,140.19 721.97,144.56 721.31,145.41"/>
    </edge>
    <edge id=":84_4" function="internal">
        <lane id=":84_4_0" index="0" disallow="pedestrian tram rail_urban rail rail_electric rail_fast ship" speed="26.74" length="36.89" width="3.50" shape="718.57,143.23 719.17,142.45 722.17,138.26 724.87,133.90 727.27,129.37 729.33,124.68 731.06,119.86 732.44,114.92 733.48,109.90"/>
    </edge>
    <edge id=":84_5" function="internal">
        <lane id=":84_5_0" index="0" disallow="pedestrian tram rail_urban rail rail_electric rail_fast ship" speed="14.30" length="31.49" width="3.50" shape="718.57,143.23 719.31,142.31 721.65,139.68 724.25,137.24 727.10,135.07 729.19,133.81 731.40,132.75 733.71,131.93 736.11,131.38 738.57,131.10 741.03,131.11 743.46,131.39 745.86,131.91"/>
    </edge>
    <edge id=":85_0" function="internal">
        <lane id=":85_0_0" index="0" disallow="pedestrian tram rail_urban rail rail_electric rail_fast ship" speed="11.14" length="28.53" width="3.50" shape="690.17,264.77 688.92,261.74 687.89,259.80 686.67,257.97 685.24,256.31 684.44,255.56 683.58,254.88 682.66,254.26 681.70,253.74 680.69,253.30 679.65,252.95 678.58,252.69 677.50,252.52 675.31,252.42 673.12,252.60 670.96,253.02 667.81,253.96"/>
    </edge>
    <edge id=":85_1" function="internal">
        <lane id=":85_1_0" index="0" disallow="pedestrian tram rail_urban rail rail_electric rail_fast ship" speed="36.11" length="39.11" width="3.50" shape="690.17,264.77 682.50,242.40 677.68,227.71"/>
    </edge>
    <edge id=":85_2" function="internal">
        <lane id=":85_2_0" index="0" disallow="pedestrian tram rail_urban rail rail_electric rail_fast ship" speed="12.11" length="34.42" width="3.50" shape="690.17,264.77 689.10,261.11 688.62,258.53 688.43,255.90 688.56,253.26 688.79,251.89 689.13,250.56 689.58,249.27 690.15,248.01 690.83,246.82 691.62,245.69 692.49,244.64 693.46,243.66 695.50,241.99 697.72,240.58 700.06,239.42 703.63,238.06"/>
    </edge>
    <edge id=":85_3" function="internal">
        <lane id=":85_3_0" index="0" disallow="pedestrian tram rail_urban rail rail_electric rail_fast ship" speed="11.10" length="28.74" width="3.50" shape="704.71,241.39 701.61,242.56 699.63,243.55 697.76,244.73 696.04,246.13 695.27,246.92 694.56,247.77 693.93,248.68 693.38,249.64 692.92,250.64 692.55,251.69 692.28,252.76 692.10,253.85 691.98,256.06 692.14,258.27 692.54,260.44 693.47,263.61"/>
    </edge>
    <edge id=":85_4" function="internal">
        <lane id=":85_4_0" index="0" disallow="pedestrian tram rail_urban rail rail_electric rail_fast ship" speed="36.11" length="38.98" width="3.50" shape="704.71,241.39 684.26,248.18 667.81,253.96"/>
    </edge>
    <edge id=":85_5" function="internal">
        <lane id=":85_5_0" index="0" disallow="pedestrian tram rail_urban rail rail_electric rail_fast ship" speed="12.28" length="34.75" width="3.50" shape="704.71,241.39 700.98,242.39 698.45,242.82 695.88,243.01 693.31,242.89 690.78,242.43 689.55,242.06 688.35,241.58 687.20,241.00 686.11,240.33 685.07,239.58 683.18,237.82 681.57,235.82 680.20,233.64 679.05,231.34 677.68,227.71"/>
    </edge>
    <edge id=":85_6" function="internal">
        <lane id=":85_6_0" index="0" disallow="pedestrian tram rail_urban rail rail_electric rail_fast ship" speed="11.29" length="29.17" width="3.50" shape="681.01,226.63 682.21,229.81 683.18,231.77 684.34,233.61 685.68,235.27 687.24,236.72 688.06,237.31 688.94,237.85 689.87,238.31 690.83,238.69 691.79,238.99 693.90,239.37 696.04,239.46 698.21,239.30 700.38,238.94 703.63,238.06"/>
    </edge>
    <edge id=":85_7" function="internal">
        <lane id=":85_7_0" index="0" disallow="pedestrian tram rail_urban rail rail_electric rail_fast ship" speed="36.11" length="39.02" width="3.50" shape="681.01,226.63 685.82,241.29 693.47,263.61"/>
    </edge>
    <edge id=":85_8" function="internal">
        <lane id=":85_8_0" index="0" disallow="pedestrian tram rail_urban rail rail_electric rail_fast ship" speed="12.40" length="34.55" width="3.50" shape="681.01,226.63 682.01,230.36 682.44,232.89 682.63,235.44 682.52,237.99 682.08,240.51 681.72,241.74 681.27,242.93 680.71,244.09 680.07,245.19 678.53,247.23 676.71,249.03 674.68,250.58 672.48,251.90 670.18,253.02 667.81,253.96"/>
    </edge>
    <edge id=":85_9" function="internal">
        <lane id=":85_9_0" index="0" disallow="pedestrian tram rail_urban rail rail_electric rail_fast ship" speed="11.41" length="29.10" width="3.50" shape="666.62,250.67 668.69,249.85 670.68,248.88 672.55,247.76 674.26,246.46 675.76,244.98 677.03,243.28 677.53,242.41 677.98,241.48 678.35,240.51 678.63,239.54 679.00,237.44 679.09,235.30 678.92,233.13 678.56,230.98 677.68,227.71"/>
    </edge>
    <edge id=":85_10" function="internal">
        <lane id=":85_10_0" index="0" disallow="pedestrian tram rail_urban rail rail_electric rail_fast ship" speed="36.11" length="39.10" width="3.50" shape="666.62,250.67 683.13,244.87 703.63,238.06"/>
    </edge>
    <edge id=":85_11" function="internal">
        <lane id=":85_11_0" index="0" disallow="pedestrian tram rail_urban rail rail_electric rail_fast ship" speed="12.14" length="34.15" width="3.50" shape="666.62,250.67 670.27,249.58 672.82,249.09 675.43,248.87 678.05,248.99 679.41,249.20 680.73,249.51 682.02,249.94 683.27,250.49 684.46,251.14 685.59,251.90 686.65,252.74 687.65,253.67 689.36,255.65 690.81,257.82 692.03,260.11 693.47,263.61"/>
    </edge>
    <edge id=":86_0" function="internal">
        <lane id=":86_0_0" index="0" disallow="pedestrian tram rail_urban rail rail_electric rail_fast ship" speed="36.11" length="38.59" width="3.50" shape="551.50,182.16 545.85,163.71 540.19,145.26"/>
    </edge>
    <edge id=":86_1" function="internal">
        <lane id=":86_1_0" index="0" disallow="pedestrian tram rail_urban rail rail_electric rail_fast ship" speed="12.35" length="34.30" width="3.50" shape="551.50,182.16 551.15,180.91 550.59,178.41 550.25,175.82 550.21,173.18 550.51,170.55 550.82,169.20 551.23,167.90 551.75,166.64 552.38,165.43 553.10,164.27 553.94,163.17 555.76,161.24 557.81,159.58 560.02,158.17 562.33,156.99 565.87,155.57"/>
    </edge>
    <edge id=":86_2" function="internal">
        <lane id=":86_2_0" index="0" disallow="pedestrian tram rail_urban rail rail_electric rail_fast ship" speed="11.36" length="28.85" width="3.50" shape="567.01,158.88 563.92,160.11 561.94,161.12 560.06,162.31 558.33,163.70 556.81,165.31 556.14,166.20 555.54,167.13 555.03,168.12 554.60,169.14 554.26,170.20 554.00,171.28 553.74,173.48 553.78,175.70 554.06,177.90 554.55,180.07 554.85,181.13"/>
    </edge>
    <edge id=":86_3" function="internal">
        <lane id=":86_3_0" index="0" disallow="pedestrian tram rail_urban rail rail_electric rail_fast ship" speed="12.15" length="34.79" width="3.50" shape="567.01,158.88 563.15,159.99 560.52,160.47 557.85,160.67 555.18,160.54 553.86,160.32 552.56,160.00 551.29,159.56 550.07,159.01 548.91,158.35 547.81,157.59 546.78,156.73 545.82,155.79 544.14,153.72 542.73,151.44 541.56,149.03 540.19,145.26"/>
    </edge>
    <edge id=":86_4" function="internal">
        <lane id=":86_4_0" index="0" disallow="pedestrian tram rail_urban rail rail_electric rail_fast ship" speed="11.15" length="29.12" width="3.50" shape="543.52,144.20 544.73,147.52 545.72,149.57 546.90,151.48 548.32,153.22 549.07,153.96 549.90,154.65 550.78,155.26 551.71,155.79 552.68,156.22 553.69,156.57 554.74,156.83 555.78,157.01 558.02,157.12 560.27,156.95 562.50,156.54 565.87,155.57"/>
    </edge>
    <edge id=":86_5" function="internal">
        <lane id=":86_5_0" index="0" disallow="pedestrian tram rail_urban rail rail_electric rail_fast ship" speed="36.11" length="38.63" width="3.50" shape="543.52,144.20 549.19,162.68 554.85,181.13"/>
    </edge>
    <edge id=":87_0" function="internal">
        <lane id=":87_0_0" index="0" disallow="pedestrian tram rail_urban rail rail_electric rail_fast ship" speed="11.16" length="28.44" width="3.50" shape="634.73,94.59 633.56,91.52 632.58,89.57 631.40,87.72 630.00,86.04 629.21,85.28 628.37,84.58 627.47,83.96 626.52,83.42 625.52,82.96 624.49,82.59 623.43,82.32 621.26,82.01 619.08,82.00 616.90,82.23 614.75,82.67 612.66,83.26"/>
    </edge>
    <edge id=":87_1" function="internal">
        <lane id=":87_1_0" index="0" disallow="pedestrian tram rail_urban rail rail_electric rail_fast ship" speed="17.52" length="33.99" width="3.50" shape="634.73,94.59 633.50,90.23 632.82,86.90 632.36,83.53 632.17,80.14 632.28,76.74 632.71,73.37 633.49,70.05 634.60,66.84 636.05,63.77 637.19,61.81"/>
    </edge>
    <edge id=":87_2" function="internal">
        <lane id=":87_2_0" index="0" disallow="pedestrian tram rail_urban rail rail_electric rail_fast ship" speed="16.73" length="30.92" width="3.50" shape="640.15,63.68 639.13,65.42 637.83,68.21 636.83,71.10 636.14,74.09 635.77,77.14 635.68,80.23 635.86,83.32 636.28,86.41 636.92,89.47 638.06,93.51"/>
    </edge>
    <edge id=":87_3" function="internal">
        <lane id=":87_3_0" index="0" disallow="pedestrian tram rail_urban rail rail_electric rail_fast ship" speed="21.09" length="34.46" width="3.50" shape="640.15,63.68 638.24,66.44 636.10,69.04 633.75,71.45 631.22,73.65 628.54,75.66 624.78,78.02 620.85,80.06 616.79,81.80 612.66,83.26"/>
    </edge>
    <edge id=":87_4" function="internal">
        <lane id=":87_4_0" index="0" disallow="pedestrian tram rail_urban rail rail_electric rail_fast ship" speed="20.35" length="32.01" width="3.50" shape="611.60,79.93 615.47,78.56 619.28,76.93 622.95,75.04 626.46,72.85 628.94,71.00 631.28,68.96 633.45,66.75 635.43,64.36 637.19,61.81"/>
    </edge>
    <edge id=":87_5" function="internal">
        <lane id=":87_5_0" index="0" disallow="pedestrian tram rail_urban rail rail_electric rail_fast ship" speed="12.16" length="34.01" width="3.50" shape="611.60,79.93 614.01,79.24 616.52,78.74 619.09,78.46 621.72,78.47 624.32,78.84 625.65,79.19 626.93,79.65 628.16,80.21 629.34,80.88 630.46,81.65 631.50,82.51 632.48,83.46 634.15,85.47 635.55,87.67 636.71,89.98 638.06,93.51"/>
    </edge>
    <edge id=":88_0" function="internal">
        <lane id=":88_0_0" index="0" disallow="pedestrian tram rail_urban rail rail_electric rail_fast ship" speed="23.83" length="40.63" width="3.50" shape="787.29,143.73 786.33,143.78 785.05,144.08 783.48,144.60 781.67,145.33 779.65,146.23 777.46,147.28 775.14,148.45 772.72,149.72 770.26,151.05 767.78,152.41 765.33,153.80 762.94,155.17 760.65,156.49 758.51,157.75 756.54,158.92 754.80,159.96 753.31,160.86 752.12,161.57 751.26,162.09"/>
    </edge>
    <edge id=":88_1" function="internal">
        <lane id=":88_1_0" index="0" disallow="pedestrian tram rail_urban rail rail_electric rail_fast ship" speed="36.11" length="42.97" width="3.50" shape="787.29,143.73 776.44,142.29 767.28,140.61 757.19,138.38 745.19,135.35"/>
    </edge>
    <edge id=":88_2" function="internal">