<routes>
	<vehicle depart="0.1" departLane="0" departPos="9.845152496243369" departSpeed="3.7673908" id="317" type="passenger">
		<route edges=":83_3 14297"/>
	</vehicle>
	<vehicle depart="0.1" departLane="0" departPos="35.956300812383596" departSpeed="2.0282681" id="320" type="passenger">
		<route edges=":83_5 14293 14290"/>
	</vehicle>
	<vehicle depart="0.1" departLane="0" departPos="17.880390265335194" departSpeed="15.745787" id="336" type="passenger">
		<route edges="14187 14085"/>
	</vehicle>
	<vehicle depart="0.1" departLane="0" departPos="30.929579069723577" departSpeed="3.9888373" id="340" type="passenger">
		<route edges="14190 14297"/>
	</vehicle>
	<vehicle depart="0.1" departLane="0" departPos="17.10082226505452" departSpeed="4.5426353" id="345" type="passenger">
		<route edges="14190 14297"/>
	</vehicle>
	<vehicle depart="0.1" departLane="0" departPos="17.316682558284633" departSpeed="11.346389" id="347" type="passenger">
		<route edges="14296 14191"/>
	</vehicle>
	<vehicle depart="0.1" departLane="0" departPos="8.003588592580812" departSpeed="0.56238155" id="350" type="passenger">
		<route edges="14190 14297"/>
	</vehicle>
	<vehicle depart="0.1" departLane="0" departPos="32.965303283480814" departSpeed="0.8561486" id="354" type="passenger">
		<route edges=":84_3 14190 14297"/>
	</vehicle>
	<vehicle depart="0.1" departLane="0" departPos="14.282153407956782" departSpeed="9.2363989" id="344" type="truck">
		<route edges=":83_0 14187 14085"/>
	</vehicle>
</routes>
