<routes>
	<vehicle depart="0.1" departLane="0" departPos="21.427154466806183" departSpeed="1.4000294" id="31" type="passenger">
		<route edges=":82_2 46103"/>
	</vehicle>
	<vehicle depart="0.1" departLane="0" departPos="7.174412192021185" departSpeed="0.0" id="311" type="passenger">
		<route edges="46631 46107"/>
	</vehicle>
	<vehicle depart="0.1" departLane="0" departPos="33.20418120292574" departSpeed="0.4277939" id="312" type="passenger">
		<route edges=":80_11 46631"/>
	</vehicle>
	<vehicle depart="0.1" departLane="0" departPos="13.82983150256477" departSpeed="0.23530591" id="330" type="passenger">
		<route edges="46103 46154"/>
	</vehicle>
	<vehicle depart="0.1" departLane="0" departPos="40.81266057911326" departSpeed="1.7215654" id="333" type="passenger">
		<route edges=":82_2 46103 46154"/>
	</vehicle>
	<vehicle depart="0.1" departLane="0" departPos="20.00192896502669" departSpeed="1.4769887" id="334" type="passenger">
		<route edges="46103 46154 46734"/>
	</vehicle>
	<vehicle depart="0.1" departLane="0" departPos="18.28304805883969" departSpeed="12.367292" id="342" type="passenger">
		<route edges=":82_7 46630 46627"/>
	</vehicle>
	<vehicle depart="0.1" departLane="0" departPos="10.732476642255154" departSpeed="0.97564394" id="348" type="passenger">
		<route edges="46106 46630"/>
	</vehicle>
	<vehicle depart="0.1" departLane="0" departPos="8.355418313713287" departSpeed="1.5666853" id="323" type="motorcycle">
		<route edges=":82_2 46103"/>
	</vehicle>
	<vehicle depart="0.1" departLane="0" departPos="13.08062850543571" departSpeed="1.3686068" id="340" type="truck">
		<route edges="46633 46630 46798"/>
	</vehicle>
</routes>
