<!-- generated on Tue Feb  9 22:00:59 2021 by Eclipse SUMO netconvert Version 1.8.0
<configuration xmlns:xsi="http://www.w3.org/2001/XMLSchema-instance" xsi:noNamespaceSchemaLocation="http://sumo.dlr.de/xsd/netconvertConfiguration.xsd">

    <input>
        <node-files value="./converted_scenarios/scenario-factory/BEL_Putte-8_2_I-1-1/BEL_Putte-8_2_I-1-1.nod.xml"/>
        <edge-files value="./converted_scenarios/scenario-factory/BEL_Putte-8_2_I-1-1/BEL_Putte-8_2_I-1-1.edg.xml"/>
        <connection-files value="./converted_scenarios/scenario-factory/BEL_Putte-8_2_I-1-1/BEL_Putte-8_2_I-1-1.con.xml"/>
        <tllogic-files value="./converted_scenarios/scenario-factory/BEL_Putte-8_2_I-1-1/BEL_Putte-8_2_I-1-1.tll.xml"/>
        <type-files value="/home/zen/commonroad-interactive-benchmarks/install/commonroad-map-tool/crmapconverter/sumo_map/templates/DEU.typ.xml"/>
    </input>

    <output>
        <output-file value="./converted_scenarios/scenario-factory/BEL_Putte-8_2_I-1-1/BEL_Putte-8_2_I-1-1.net.xml"/>
    </output>

    <processing>
        <geometry.remove.keep-edges.explicit value="true"/>
        <geometry.avoid-overlap value="true"/>
        <offset.disable-normalization value="true"/>
    </processing>

    <junctions>
        <no-turnarounds value="true"/>
        <junctions.internal-link-detail value="20"/>
    </junctions>

    <report>
        <aggregate-warnings value="5"/>
    </report>

    <random_number>
        <seed value="1234"/>
    </random_number>

</configuration>
--><net xmlns:xsi="http://www.w3.org/2001/XMLSchema-instance" version="1.6" junctionCornerDetail="5" junctionLinkDetail="20" limitTurnSpeed="5.50" xsi:noNamespaceSchemaLocation="http://sumo.dlr.de/xsd/net_file.xsd">

    <location netOffset="0.00,0.00" convBoundary="-480.05,195.50,-222.84,395.61" origBoundary="-480.05,195.50,-222.84,395.61" projParameter="!"/>

    <type id="highway.bridleway" priority="1" speed="2.78" allow="pedestrian" oneway="1" width="2.00"/>
    <type id="highway.bus_guideway" priority="1" speed="27.78" allow="bus" oneway="1"/>
    <type id="highway.cycleway" priority="1" speed="8.33" allow="bicycle" oneway="0" width="1.00"/>
    <type id="highway.footway" priority="1" speed="2.78" allow="pedestrian" oneway="1" width="2.00"/>
    <type id="highway.ford" priority="1" speed="2.78" allow="army" oneway="0"/>
    <type id="highway.living_street" priority="2" speed="2.78" disallow="tram rail_urban rail rail_electric rail_fast ship" oneway="0"/>
    <type id="highway.motorway" priority="14" speed="39.44" allow="private emergency authority army vip passenger hov taxi bus coach delivery truck trailer motorcycle evehicle custom1 custom2" oneway="1"/>
    <type id="highway.motorway_link" priority="9" speed="22.22" allow="private emergency authority army vip passenger hov taxi bus coach delivery truck trailer motorcycle evehicle custom1 custom2" oneway="1"/>
    <type id="highway.path" priority="1" speed="2.78" allow="pedestrian bicycle" oneway="0" width="2.00"/>
    <type id="highway.pedestrian" priority="1" speed="2.78" allow="pedestrian" oneway="1" width="2.00"/>
    <type id="highway.primary" priority="12" speed="27.78" disallow="pedestrian tram rail_urban rail rail_electric rail_fast ship" oneway="0"/>
    <type id="highway.primary_link" priority="7" speed="22.22" disallow="pedestrian tram rail_urban rail rail_electric rail_fast ship" oneway="0"/>
    <type id="highway.raceway" priority="15" speed="83.33" allow="vip" oneway="0"/>
    <type id="highway.residential" priority="3" speed="13.89" disallow="pedestrian tram rail_urban rail rail_electric rail_fast ship" oneway="0"/>
    <type id="highway.secondary" priority="11" speed="27.78" disallow="pedestrian tram rail_urban rail rail_electric rail_fast ship" oneway="0"/>
    <type id="highway.secondary_link" priority="6" speed="22.22" disallow="pedestrian tram rail_urban rail rail_electric rail_fast ship" oneway="0"/>
    <type id="highway.service" priority="1" speed="5.56" allow="pedestrian delivery bicycle" oneway="0"/>
    <type id="highway.stairs" priority="1" speed="1.39" allow="pedestrian" oneway="1" width="2.00"/>
    <type id="highway.step" priority="1" speed="1.39" allow="pedestrian" oneway="1" width="2.00"/>
    <type id="highway.steps" priority="1" speed="1.39" allow="pedestrian" oneway="1" width="2.00"/>
    <type id="highway.tertiary" priority="10" speed="22.22" disallow="pedestrian tram rail_urban rail rail_electric rail_fast ship" oneway="0"/>
    <type id="highway.tertiary_link" priority="5" speed="22.22" disallow="pedestrian tram rail_urban rail rail_electric rail_fast ship" oneway="0"/>
    <type id="highway.track" priority="1" speed="5.56" allow="pedestrian motorcycle moped bicycle" oneway="0"/>
    <type id="highway.trunk" priority="13" speed="27.78" disallow="pedestrian bicycle tram rail_urban rail rail_electric rail_fast ship" oneway="0"/>
    <type id="highway.trunk_link" priority="8" speed="22.22" disallow="pedestrian bicycle tram rail_urban rail rail_electric rail_fast ship" oneway="0"/>
    <type id="highway.unclassified" priority="4" speed="13.89" disallow="pedestrian tram rail_urban rail rail_electric rail_fast ship" oneway="0"/>
    <type id="highway.unsurfaced" priority="1" speed="8.33" disallow="tram rail_urban rail rail_electric rail_fast ship" oneway="0"/>
    <type id="railway.highspeed" priority="21" speed="69.44" allow="rail_fast" oneway="1"/>
    <type id="railway.light_rail" priority="19" speed="27.78" allow="rail_urban" oneway="1"/>
    <type id="railway.preserved" priority="16" speed="27.78" allow="rail" oneway="1"/>
    <type id="railway.rail" priority="20" speed="44.44" allow="rail" oneway="1"/>
    <type id="railway.subway" priority="18" speed="27.78" allow="rail_urban" oneway="1"/>
    <type id="railway.tram" priority="17" speed="13.89" allow="tram" oneway="1"/>

    <edge id=":37_0" function="internal">
        <lane id=":37_0_0" index="0" disallow="pedestrian tram rail_urban rail rail_electric rail_fast ship" speed="14.04" length="34.71" width="3.50" shape="-351.14,257.57 -354.04,256.01 -357.98,254.17 -360.99,253.00 -364.05,252.05 -367.15,251.38 -370.29,251.04 -372.34,251.04 -374.38,251.24 -376.37,251.65 -378.30,252.29 -380.13,253.14 -381.85,254.21 -383.50,255.51"/>
    </edge>
    <edge id=":37_1" function="internal">
        <lane id=":37_1_0" index="0" disallow="pedestrian tram rail_urban rail rail_electric rail_fast ship" speed="11.46" length="39.29" width="3.50" shape="-351.14,257.57 -355.01,255.16 -357.41,253.33 -359.61,251.26 -360.60,250.12 -361.49,248.90 -362.26,247.60 -362.86,246.22 -363.27,244.76 -363.47,243.27 -363.44,241.76 -363.19,240.27 -362.76,238.82 -362.16,237.44 -361.43,236.12 -360.60,234.86 -358.69,232.51 -356.56,230.37 -353.09,227.45"/>
    </edge>
    <edge id=":37_2" function="internal">
        <lane id=":37_2_0" index="0" disallow="pedestrian tram rail_urban rail rail_electric rail_fast ship" speed="10.40" length="32.07" width="3.50" shape="-350.94,230.21 -353.97,232.76 -355.78,234.58 -357.40,236.56 -358.06,237.57 -358.65,238.63 -359.12,239.71 -359.46,240.81 -359.64,241.92 -359.66,243.03 -359.52,244.12 -359.22,245.20 -358.76,246.24 -358.17,247.26 -357.46,248.23 -356.67,249.13 -354.82,250.88 -352.78,252.43 -349.42,254.53"/>
    </edge>
    <edge id=":37_3" function="internal">
        <lane id=":37_3_0" index="0" disallow="pedestrian tram rail_urban rail rail_electric rail_fast ship" speed="36.11" length="41.23" width="3.50" shape="-350.94,230.21 -369.73,244.73 -383.50,255.51"/>
    </edge>
    <edge id=":37_4" function="internal">
        <lane id=":37_4_0" index="0" disallow="pedestrian tram rail_urban rail rail_electric rail_fast ship" speed="36.11" length="41.51" width="3.50" shape="-385.86,252.93 -371.92,242.00 -353.09,227.45"/>
    </edge>
    <edge id=":37_5" function="internal">
        <lane id=":37_5_0" index="0" disallow="pedestrian tram rail_urban rail rail_electric rail_fast ship" speed="14.89" length="39.12" width="3.50" shape="-385.86,252.93 -383.91,251.38 -381.91,250.12 -379.78,249.10 -377.55,248.33 -375.25,247.81 -372.90,247.55 -370.54,247.51 -367.02,247.84 -363.55,248.56 -360.16,249.58 -356.85,250.84 -352.57,252.84 -349.42,254.53"/>
    </edge>
    <edge id=":38_0" function="internal">
        <lane id=":38_0_0" index="0" disallow="pedestrian tram rail_urban rail rail_electric rail_fast ship" speed="14.54" length="38.79" width="3.50" shape="-285.34,294.73 -288.18,293.28 -291.10,292.14 -294.11,291.33 -297.18,290.90 -300.28,290.86 -303.36,291.21 -306.39,291.95 -309.33,293.02 -312.17,294.39 -314.90,296.02 -317.52,297.85 -320.82,300.56"/>
    </edge>
    <edge id=":38_1" function="internal">
        <lane id=":38_1_0" index="0" disallow="pedestrian tram rail_urban rail rail_electric rail_fast ship" speed="36.11" length="43.07" width="3.50" shape="-285.34,294.73 -304.10,284.13 -322.84,273.55"/>
    </edge>
    <edge id=":38_2" function="internal">
        <lane id=":38_2_0" index="0" disallow="pedestrian tram rail_urban rail rail_electric rail_fast ship" speed="36.11" length="43.04" width="3.50" shape="-321.12,270.51 -302.38,281.09 -283.64,291.67"/>
    </edge>
    <edge id=":38_3" function="internal">
        <lane id=":38_3_0" index="0" disallow="pedestrian tram rail_urban rail rail_electric rail_fast ship" speed="11.63" length="37.66" width="3.50" shape="-321.12,270.51 -318.75,271.97 -316.48,273.66 -314.42,275.62 -313.45,276.78 -312.61,278.03 -311.90,279.38 -311.35,280.83 -311.00,282.35 -310.86,283.90 -310.93,285.45 -311.19,286.95 -311.60,288.39 -312.14,289.77 -312.80,291.09 -314.29,293.49 -316.01,295.70 -317.87,297.75 -320.82,300.56"/>
    </edge>
    <edge id=":38_4" function="internal">
        <lane id=":38_4_0" index="0" disallow="pedestrian tram rail_urban rail rail_electric rail_fast ship" speed="10.58" length="30.90" width="3.50" shape="-323.27,298.06 -320.58,295.51 -318.99,293.76 -317.53,291.90 -316.26,289.90 -315.73,288.85 -315.27,287.75 -314.93,286.62 -314.70,285.46 -314.62,284.28 -314.69,283.10 -314.93,281.95 -315.32,280.83 -315.85,279.77 -316.50,278.78 -317.24,277.86 -318.94,276.22 -320.83,274.80 -322.84,273.55"/>
    </edge>
    <edge id=":38_5" function="internal">
        <lane id=":38_5_0" index="0" disallow="pedestrian tram rail_urban rail rail_electric rail_fast ship" speed="15.32" length="43.30" width="3.50" shape="-323.27,298.06 -319.55,295.00 -316.68,292.99 -313.67,291.21 -310.52,289.69 -307.23,288.51 -303.82,287.70 -300.35,287.32 -296.85,287.38 -293.39,287.89 -290.01,288.80 -286.76,290.08 -283.64,291.67"/>
    </edge>
    <edge id=":39_0" function="internal">
        <lane id=":39_0_0" index="0" disallow="pedestrian tram rail_urban rail rail_electric rail_fast ship" speed="36.11" length="38.42" width="3.50" shape="-403.03,274.22 -417.37,289.23 -429.43,302.13"/>
    </edge>
    <edge id=":39_1" function="internal">
        <lane id=":39_1_0" index="0" disallow="pedestrian tram rail_urban rail rail_electric rail_fast ship" speed="12.39" length="34.70" width="3.50" shape="-403.03,274.22 -405.77,276.74 -407.80,278.27 -409.99,279.60 -412.36,280.67 -414.84,281.41 -416.18,281.65 -417.50,281.78 -418.83,281.79 -420.15,281.70 -421.49,281.50 -423.99,280.83 -426.38,279.84 -428.61,278.60 -430.70,277.16 -433.56,274.78"/>
    </edge>
    <edge id=":39_2" function="internal">
        <lane id=":39_2_0" index="0" disallow="pedestrian tram rail_urban rail rail_electric rail_fast ship" speed="11.41" length="29.23" width="3.50" shape="-431.19,272.21 -428.70,274.29 -426.91,275.51 -425.02,276.56 -423.02,277.40 -420.92,277.96 -419.85,278.12 -418.77,278.20 -417.69,278.19 -416.61,278.09 -415.54,277.90 -413.47,277.29 -411.49,276.39 -409.64,275.27 -407.91,273.96 -405.53,271.77"/>
    </edge>
    <edge id=":39_3" function="internal">
        <lane id=":39_3_0" index="0" disallow="pedestrian tram rail_urban rail rail_electric rail_fast ship" speed="12.25" length="34.42" width="3.50" shape="-431.19,272.21 -428.41,275.03 -426.74,277.09 -425.27,279.30 -424.08,281.66 -423.61,282.90 -423.23,284.17 -422.96,285.46 -422.80,286.78 -422.76,288.10 -422.84,289.42 -423.03,290.73 -423.33,292.02 -424.22,294.51 -425.43,296.87 -426.89,299.08 -428.54,301.15 -429.43,302.13"/>
    </edge>
    <edge id=":39_4" function="internal">
        <lane id=":39_4_0" index="0" disallow="pedestrian tram rail_urban rail rail_electric rail_fast ship" speed="11.25" length="28.83" width="3.50" shape="-432.00,299.76 -431.23,298.91 -429.80,297.11 -428.55,295.23 -427.54,293.26 -426.80,291.18 -426.57,290.16 -426.42,289.11 -426.37,288.04 -426.40,286.99 -426.53,285.93 -426.75,284.89 -427.06,283.86 -427.44,282.87 -428.45,280.87 -429.70,279.01 -431.12,277.25 -433.56,274.78"/>
    </edge>
    <edge id=":39_5" function="internal">
        <lane id=":39_5_0" index="0" disallow="pedestrian tram rail_urban rail rail_electric rail_fast ship" speed="36.11" length="38.52" width="3.50" shape="-432.00,299.76 -419.91,286.82 -405.53,271.77"/>
    </edge>
    <edge id=":40_0" function="internal">
        <lane id=":40_0_0" index="0" disallow="pedestrian tram rail_urban rail rail_electric rail_fast ship" speed="7.73" length="20.34" width="3.50" shape="-340.51,334.14 -359.91,328.02"/>
    </edge>
    <edge id=":40_1" function="internal">
        <lane id=":40_1_0" index="0" disallow="pedestrian tram rail_urban rail rail_electric rail_fast ship" speed="12.33" length="34.29" width="3.50" shape="-340.50,334.16 -341.77,331.93 -342.84,329.57 -343.67,327.06 -344.17,324.47 -344.28,323.08 -344.27,321.72 -344.13,320.36 -343.88,319.01 -343.51,317.69 -343.03,316.42 -342.42,315.17 -341.02,312.93 -339.33,310.90 -337.46,309.10 -335.45,307.47 -332.32,305.36"/>
    </edge>
    <edge id=":40_2" function="internal">
        <lane id=":40_2_0" index="0" disallow="pedestrian tram rail_urban rail rail_electric rail_fast ship" speed="11.34" length="28.78" width="3.50" shape="-330.42,308.30 -333.23,310.19 -334.95,311.57 -336.55,313.10 -337.97,314.79 -339.15,316.65 -339.64,317.65 -340.04,318.68 -340.35,319.74 -340.56,320.82 -340.67,321.92 -340.69,323.02 -340.62,324.12 -340.22,326.29 -339.53,328.39 -338.61,330.40 -337.52,332.32"/>
    </edge>
    <edge id=":40_3" function="internal">
        <lane id=":40_3_0" index="0" disallow="pedestrian tram rail_urban rail rail_electric rail_fast ship" speed="36.11" length="28.21" width="3.50" shape="-330.47,308.33 -355.20,321.91"/>
    </edge>
    <edge id=":40_4" function="internal">
        <lane id=":40_4_0" index="0" disallow="pedestrian tram rail_urban rail rail_electric rail_fast ship" speed="36.11" length="28.00" width="3.50" shape="-356.86,318.83 -339.50,309.51 -332.32,305.36"/>
    </edge>
    <edge id=":40_5" function="internal">
        <lane id=":40_5_0" index="0" disallow="pedestrian tram rail_urban rail rail_electric rail_fast ship" speed="10.47" length="24.56" width="3.50" shape="-356.57,319.37 -355.79,319.21 -354.47,319.10 -353.15,319.16 -351.85,319.36 -350.58,319.72 -349.35,320.20 -348.18,320.80 -345.98,322.27 -343.99,324.00 -342.18,325.92 -339.72,329.03 -337.52,332.32"/>
    </edge>

    <edge id="13210" from="39" to="24" priority="3" type="highway.residential" spreadType="center" length="70.01" shape="-423.72,283.69 -480.05,222.76">
        <lane id="13210_0" index="0" disallow="pedestrian tram rail_urban rail rail_electric rail_fast ship" speed="36.11" length="70.01" width="3.50" customShape="1" shape="-433.56,274.78 -438.41,270.24 -449.75,259.16 -458.14,250.92 -460.93,247.94 -463.13,245.12 -465.92,240.83 -468.98,236.12 -471.81,232.49 -477.52,225.94 -480.05,222.76"/>
    </edge>
    <edge id="13211" from="32" to="39" priority="3" type="highway.residential" spreadType="center" length="70.02" shape="-477.65,220.17 -421.15,281.32">
        <lane id="13211_0" index="0" disallow="pedestrian tram rail_urban rail rail_electric rail_fast ship" speed="36.11" length="70.02" width="3.50" customShape="1" shape="-477.65,220.17 -477.54,220.34 -474.42,224.18 -468.78,230.66 -465.94,234.35 -462.89,239.07 -460.19,243.22 -458.09,245.87 -455.38,248.72 -447.13,256.82 -435.96,267.74 -431.17,272.22"/>
    </edge>
    <edge id="13222" from="31" to="40" priority="3" type="highway.residential" spreadType="center" length="70.03" shape="-307.40,395.61 -341.91,320.93">
        <lane id="13222_0" index="0" disallow="pedestrian tram rail_urban rail rail_electric rail_fast ship" speed="36.11" length="70.03" width="3.50" customShape="1" shape="-307.40,395.61 -309.44,393.03 -311.98,389.25 -314.80,384.46 -317.55,379.06 -320.68,372.15 -322.90,365.97 -324.27,362.71 -328.17,355.06 -332.88,346.69 -340.51,334.14"/>
    </edge>
    <edge id="13223" from="40" to="18" priority="3" type="highway.residential" spreadType="center" length="70.01" shape="-338.73,319.47 -304.39,393.75">
        <lane id="13223_0" index="0" disallow="pedestrian tram rail_urban rail rail_electric rail_fast ship" speed="36.11" length="70.01" width="3.50" customShape="1" shape="-337.52,332.32 -329.87,344.90 -325.13,353.33 -321.18,361.08 -319.74,364.44 -317.52,370.61 -314.45,377.43 -311.74,382.76 -308.97,387.46 -306.50,391.13 -304.39,393.75"/>
    </edge>
    <edge id="13309" from="40" to="38" priority="3" type="highway.residential" spreadType="center" length="11.68" shape="-341.61,319.07 -310.74,286.95">
        <lane id="13309_0" index="0" disallow="pedestrian tram rail_urban rail rail_electric rail_fast ship" speed="36.11" length="11.68" width="3.50" customShape="1" shape="-332.32,305.36 -328.86,303.12 -326.81,301.56 -323.27,298.06"/>
    </edge>
    <edge id="13310" from="38" to="40" priority="3" type="highway.residential" spreadType="center" length="12.44" shape="-308.22,289.38 -339.09,321.50">
        <lane id="13310_0" index="0" disallow="pedestrian tram rail_urban rail rail_electric rail_fast ship" speed="36.11" length="12.44" width="3.50" customShape="1" shape="-320.82,300.56 -324.61,304.29 -326.85,305.98 -330.47,308.33"/>
    </edge>
    <edge id="13312" from="19" to="40" priority="3" type="highway.residential" spreadType="center" length="9.68" shape="-365.26,323.64 -340.54,318.50">
        <lane id="13312_0" index="0" disallow="pedestrian tram rail_urban rail rail_electric rail_fast ship" speed="36.11" length="9.68" width="3.50" customShape="1" shape="-365.26,323.64 -360.94,321.12 -360.83,321.06 -356.89,318.77"/>
    </edge>
    <edge id="13460" from="37" to="5" priority="3" type="highway.residential" spreadType="center" length="52.31" shape="-363.55,245.12 -311.67,195.50">
        <lane id="13460_0" index="0" disallow="pedestrian tram rail_urban rail rail_electric rail_fast ship" speed="36.11" length="52.31" width="3.50" customShape="1" shape="-353.09,227.45 -332.37,211.47 -311.67,195.50"/>
    </edge>
    <edge id="13461" from="30" to="37" priority="3" type="highway.residential" spreadType="center" length="52.33" shape="-309.52,198.26 -361.13,247.64">
        <lane id="13461_0" index="0" disallow="pedestrian tram rail_urban rail rail_electric rail_fast ship" speed="36.11" length="52.33" width="3.50" customShape="1" shape="-309.52,198.26 -330.24,214.24 -350.96,230.22"/>
    </edge>
    <edge id="13507" from="39" to="37" priority="3" type="highway.residential" spreadType="center" length="27.24" shape="-423.40,281.00 -363.21,244.85">
        <lane id="13507_0" index="0" disallow="pedestrian tram rail_urban rail rail_electric rail_fast ship" speed="36.11" length="27.24" width="3.50" customShape="1" shape="-405.53,271.77 -403.35,269.56 -392.62,259.11 -385.86,252.93"/>
    </edge>
    <edge id="13508" from="37" to="39" priority="3" type="highway.residential" spreadType="center" length="27.06" shape="-361.41,247.85 -421.59,284.00">
        <lane id="13508_0" index="0" disallow="pedestrian tram rail_urban rail rail_electric rail_fast ship" speed="36.11" length="27.06" width="3.50" customShape="1" shape="-383.50,255.51 -390.23,261.67 -400.87,272.03 -403.04,274.23"/>
    </edge>
    <edge id="13510" from="33" to="39" priority="3" type="highway.residential" spreadType="center" length="69.99" shape="-477.84,352.55 -423.83,281.39">
        <lane id="13510_0" index="0" disallow="pedestrian tram rail_urban rail rail_electric rail_fast ship" speed="36.11" length="69.99" width="3.50" customShape="1" shape="-477.84,352.55 -472.27,344.71 -467.91,339.10 -461.62,331.80 -432.00,299.76"/>
    </edge>
    <edge id="13511" from="39" to="21" priority="3" type="highway.residential" spreadType="center" length="69.99" shape="-421.04,283.51 -475.25,354.94">
        <lane id="13511_0" index="0" disallow="pedestrian tram rail_urban rail rail_electric rail_fast ship" speed="36.11" length="69.99" width="3.50" customShape="1" shape="-429.43,302.13 -458.86,333.96 -465.07,341.16 -469.36,346.67 -475.25,354.94"/>
    </edge>
    <edge id="13563" from="38" to="37" priority="3" type="highway.residential" spreadType="center" length="32.51" shape="-310.53,289.56 -363.40,247.72">
        <lane id="13563_0" index="0" disallow="pedestrian tram rail_urban rail rail_electric rail_fast ship" speed="36.11" length="32.51" width="3.50" customShape="1" shape="-322.84,273.55 -337.00,265.56 -351.15,257.57"/>
    </edge>
    <edge id="13564" from="37" to="38" priority="3" type="highway.residential" spreadType="center" length="32.52" shape="-361.23,244.98 -308.36,286.82">
        <lane id="13564_0" index="0" disallow="pedestrian tram rail_urban rail rail_electric rail_fast ship" speed="36.11" length="32.52" width="3.50" customShape="1" shape="-349.42,254.53 -335.28,262.51 -321.10,270.52"/>
    </edge>
    <edge id="13566" from="34" to="38" priority="3" type="highway.residential" spreadType="center" length="70.04" shape="-224.54,329.42 -310.25,289.74">
        <lane id="13566_0" index="0" disallow="pedestrian tram rail_urban rail rail_electric rail_fast ship" speed="36.11" length="70.04" width="3.50" customShape="1" shape="-224.54,329.42 -285.37,294.71"/>
    </edge>
    <edge id="13567" from="38" to="29" priority="3" type="highway.residential" spreadType="center" length="70.00" shape="-308.78,286.56 -222.84,326.36">
        <lane id="13567_0" index="0" disallow="pedestrian tram rail_urban rail rail_electric rail_fast ship" speed="36.11" length="70.00" width="3.50" customShape="1" shape="-283.64,291.67 -222.84,326.36"/>
    </edge>
    <edge id="14125" from="40" to="41" priority="3" type="highway.residential" spreadType="center" length="37.92" shape="-339.96,321.95 -358.99,324.03">
        <lane id="14125_0" index="0" disallow="pedestrian tram rail_urban rail rail_electric rail_fast ship" speed="36.11" length="37.92" width="3.50" customShape="1" shape="-359.91,328.02 -342.42,331.27 -344.54,328.55 -346.05,326.91 -347.69,325.42 -349.48,324.15 -350.36,323.67 -351.30,323.25 -352.26,322.94 -353.23,322.74 -354.20,322.67 -355.17,322.71 -356.14,322.87 -357.10,323.15 -358.04,323.54 -358.99,324.03"/>
    </edge>
    <edge id="14200" from="40" to="41" priority="3" type="highway.residential" spreadType="center" length="4.34">
        <lane id="14200_0" index="0" disallow="pedestrian tram rail_urban rail rail_electric rail_fast ship" speed="36.11" length="4.34" width="3.50" customShape="1" shape="-355.20,321.91 -356.23,322.46 -358.99,324.03"/>
    </edge>

    <junction id="18" type="dead_end" x="-304.39" y="393.75" incLanes="13223_0" intLanes="" shape="-303.03,392.65 -305.76,394.84" rightOfWay="edgePriority"/>
    <junction id="19" type="dead_end" x="-365.26" y="323.64" incLanes="" intLanes="" shape="-364.38,325.15 -366.14,322.13" rightOfWay="edgePriority"/>
    <junction id="21" type="dead_end" x="-475.25" y="354.94" incLanes="13511_0" intLanes="" shape="-473.83,355.96 -476.68,353.93" rightOfWay="edgePriority"/>
    <junction id="24" type="dead_end" x="-480.05" y="222.76" incLanes="13210_0" intLanes="" shape="-481.42,223.85 -478.68,221.67" rightOfWay="edgePriority"/>
    <junction id="29" type="dead_end" x="-222.84" y="326.36" incLanes="13567_0" intLanes="" shape="-221.97,324.84 -223.70,327.88" rightOfWay="edgePriority"/>
    <junction id="30" type="dead_end" x="-309.52" y="198.26" incLanes="" intLanes="" shape="-310.58,196.88 -308.45,199.65" rightOfWay="edgePriority"/>
    <junction id="31" type="dead_end" x="-307.40" y="395.61" incLanes="" intLanes="" shape="-306.03,394.52 -308.77,396.69" rightOfWay="edgePriority"/>
    <junction id="32" type="dead_end" x="-477.65" y="220.17" incLanes="" intLanes="" shape="-479.10,221.15 -476.21,219.19" rightOfWay="edgePriority"/>
    <junction id="33" type="dead_end" x="-477.84" y="352.55" incLanes="" intLanes="" shape="-476.42,353.57 -479.27,351.54" rightOfWay="edgePriority"/>
    <junction id="34" type="dead_end" x="-224.54" y="329.42" incLanes="" intLanes="" shape="-223.67,327.90 -225.41,330.94" rightOfWay="edgePriority"/>
    <junction id="37" type="priority" x="-362.31" y="246.35" incLanes="13563_0 13461_0 13507_0" intLanes=":37_0_0 :37_1_0 :37_2_0 :37_3_0 :37_4_0 :37_5_0" shape="-352.00,259.10 -348.56,253.00 -353.26,249.78 -356.17,246.41 -357.28,242.92 -356.61,239.28 -354.14,235.51 -349.89,231.61 -354.16,226.07 -387.04,251.64 -382.32,256.80 -378.69,254.32 -374.50,252.98 -369.73,252.79 -364.39,253.75 -358.48,255.85">
        <request index="0" response="001000" foes="001000" cont="0"/>
        <request index="1" response="111000" foes="111000" cont="0"/>
        <request index="2" response="000000" foes="100000" cont="0"/>
        <request index="3" response="000000" foes="100011" cont="0"/>
        <request index="4" response="000000" foes="000010" cont="0"/>
        <request index="5" response="001100" foes="001110" cont="0"/>
    </junction>
    <junction id="38" type="priority" x="-309.48" y="288.16" incLanes="13566_0 13564_0 13309_0" intLanes=":38_0_0 :38_1_0 :38_2_0 :38_3_0 :38_4_0 :38_5_0" shape="-286.24,296.23 -282.77,290.15 -320.26,268.98 -323.70,275.08 -319.51,278.16 -317.32,281.47 -316.92,284.99 -318.12,288.73 -320.72,292.67 -324.49,296.82 -319.59,301.81 -314.26,297.33 -308.84,294.27 -303.33,292.63 -297.73,292.41 -292.03,293.61">
        <request index="0" response="000000" foes="001000" cont="0"/>
        <request index="1" response="000000" foes="111000" cont="0"/>
        <request index="2" response="000000" foes="100000" cont="0"/>
        <request index="3" response="000011" foes="100011" cont="0"/>
        <request index="4" response="000010" foes="000010" cont="0"/>
        <request index="5" response="001110" foes="001110" cont="0"/>
    </junction>
    <junction id="39" type="priority" x="-422.46" y="282.48" incLanes="13508_0 13211_0 13510_0" intLanes=":39_0_0 :39_1_0 :39_2_0 :39_3_0 :39_4_0 :39_5_0" shape="-401.79,275.45 -406.77,270.54 -410.57,273.75 -414.39,275.70 -418.25,276.40 -422.13,275.84 -426.04,274.02 -429.98,270.95 -434.76,276.05 -431.40,279.79 -429.28,283.53 -428.41,287.28 -428.79,291.03 -430.41,294.80 -433.28,298.57 -428.14,303.32">
        <request index="0" response="000000" foes="001000" cont="0"/>
        <request index="1" response="110000" foes="111000" cont="0"/>
        <request index="2" response="100000" foes="100000" cont="0"/>
        <request index="3" response="100011" foes="100011" cont="0"/>
        <request index="4" response="000000" foes="000010" cont="0"/>
        <request index="5" response="000000" foes="001110" cont="0"/>
    </junction>
    <junction id="40" type="priority" x="-340.31" y="320.24" incLanes="13222_0 13310_0 13312_0" intLanes=":40_0_0 :40_1_0 :40_2_0 :40_3_0 :40_4_0 :40_5_0" shape="-342.00,335.05 -336.03,331.41 -337.95,327.35 -338.67,323.46 -338.18,319.76 -336.48,316.25 -333.58,312.92 -329.46,309.77 -333.27,303.89 -357.72,317.22 -354.38,323.45 -360.23,329.74 -359.59,326.30">
        <request index="0" response="000000" foes="000000" cont="0"/>
        <request index="1" response="111000" foes="111000" cont="0"/>
        <request index="2" response="000000" foes="100000" cont="0"/>
        <request index="3" response="000000" foes="100010" cont="0"/>
        <request index="4" response="000000" foes="000010" cont="0"/>
        <request index="5" response="001100" foes="001110" cont="0"/>
    </junction>
    <junction id="41" type="dead_end" x="-358.99" y="324.03" incLanes="14125_0 14200_0" intLanes="" shape="-358.17,325.58 -359.80,322.49 -358.12,325.55 -359.85,322.52"/>
    <junction id="5" type="dead_end" x="-311.67" y="195.50" incLanes="13460_0" intLanes="" shape="-312.74,194.12 -310.60,196.89" rightOfWay="edgePriority"/>

    <connection from="13211" to="13507" fromLane="0" toLane="0" contPos="-4.00" shape="-431.19,272.21 -428.70,274.29 -426.91,275.51 -425.02,276.56 -423.02,277.40 -420.92,277.96 -419.85,278.12 -418.77,278.20 -417.69,278.19 -416.61,278.09 -415.54,277.90 -413.47,277.29 -411.49,276.39 -409.64,275.27 -407.91,273.96 -405.53,271.77" via=":39_2_0" dir="r" state="m"/>
    <connection from="13211" to="13511" fromLane="0" toLane="0" contPos="-4.00" shape="-431.19,272.21 -428.41,275.03 -426.74,277.09 -425.27,279.30 -424.08,281.66 -423.61,282.90 -423.23,284.17 -422.96,285.46 -422.80,286.78 -422.76,288.10 -422.84,289.42 -423.03,290.73 -423.33,292.02 -424.22,294.51 -425.43,296.87 -426.89,299.08 -428.54,301.15 -429.43,302.13" via=":39_3_0" dir="l" state="m"/>
    <connection from="13222" to="14125" fromLane="0" toLane="0" contPos="-4.00" via=":40_0_0" dir="r" state="M"/>
    <connection from="13222" to="13309" fromLane="0" toLane="0" contPos="-4.00" shape="-340.50,334.16 -341.77,331.93 -342.84,329.57 -343.67,327.06 -344.17,324.47 -344.28,323.08 -344.27,321.72 -344.13,320.36 -343.88,319.01 -343.51,317.69 -343.03,316.42 -342.42,315.17 -341.02,312.93 -339.33,310.90 -337.46,309.10 -335.45,307.47 -332.32,305.36" via=":40_1_0" dir="l" state="m"/>