<routes>
	<vehicle depart="0.1" departLane="0" departPos="51.33261541976887" departSpeed="0.0" id="356" type="bus">
		<route edges="13461 13564"/>
	</vehicle>
	<vehicle depart="0.1" departLane="0" departPos="7.414731201953826" departSpeed="0.003757546" id="33" type="passenger">
		<route edges="13564 13567"/>
	</vehicle>
	<vehicle depart="0.1" departLane="0" departPos="20.032542084284476" departSpeed="1.2183613" id="35" type="passenger">
		<route edges=":37_1 13460"/>
	</vehicle>
	<vehicle depart="0.1" departLane="0" departPos="22.421293910127847" departSpeed="0.0" id="312" type="passenger">
		<route edges="13564 13567"/>
	</vehicle>
	<vehicle depart="0.1" departLane="0" departPos="28.077995333586426" departSpeed="8.8595357" id="328" type="passenger">
		<route edges="13563 13508"/>
	</vehicle>
	<vehicle depart="0.1" departLane="0" departPos="14.919744686286931" departSpeed="0.0" id="333" type="passenger">
		<route edges="13564 13567"/>
	</vehicle>
	<vehicle depart="0.1" departLane="0" departPos="17.34327752606704" departSpeed="6.259389" id="337" type="passenger">
		<route edges="13563 13508"/>
	</vehicle>
	<vehicle depart="0.1" departLane="0" departPos="2.5" departSpeed="4.905747" id="343" type="passenger">
		<route edges="13563 13460"/>
	</vehicle>
	<vehicle depart="0.1" departLane="0" departPos="17.208498231827207" departSpeed="8.0099576" id="349" type="passenger">
		<route edges=":37_3 13508 13511"/>
	</vehicle>
	<vehicle depart="0.1" departLane="0" departPos="31.480204047223186" departSpeed="0.07201638" id="353" type="motorcycle">
		<route edges=":37_2 13564"/>
	</vehicle>
</routes>
