<!-- generated on 2020-12-18 16:31:42.814905 by ipykernel_launcher.py v1_2_0+5214-53edc58fcd
-->
<nodes>
	<node id="1" type="from" x="69.21255" y="-77.37559999999999"/>
	<node id="2" type="to" x="45.2479" y="6.23745"/>
	<node id="3" type="from" x="42.905649999999994" y="5.36495"/>
	<node id="4" type="to" x="66.7959" y="-78.01255"/>
	<node id="5" type="from" x="-79.0555" y="-132.711575"/>
	<node id="6" type="to" x="-98.87950000000001" y="-139.047425"/>
	<node id="7" type="from" x="-46.3979" y="-286.5271"/>
	<node id="8" type="to" x="-46.143249999999995" y="-286.56665"/>
	<node id="9" type="from" x="-113.119875" y="-144.53697499999998"/>
	<node id="10" type="to" x="-184.525525" y="-177.174125"/>
	<node id="11" type="from" x="-2.4387" y="-18.935450000000003"/>
	<node id="12" type="to" x="2.7824" y="-33.7181"/>
	<node id="13" type="from" x="5.1397" y="-32.886849999999995"/>
	<node id="14" type="to" x="-0.07794999999999996" y="-18.1154"/>
	<node id="15" type="from" x="36.52135" y="47.0203"/>
	<node id="16" type="to" x="138.0869" y="82.96945"/>
	<node id="17" type="from" x="-11.259875000000001" y="-111.04905"/>
	<node id="18" type="to" x="-64.943675" y="-128.200225"/>
	<node id="19" type="from" x="63.3556" y="-87.31025000000001"/>
	<node id="20" type="to" x="-1.4871" y="-107.93455"/>
	<node id="21" type="from" x="-32.351749999999996" y="-286.5034"/>
	<node id="22" type="to" x="321.798" y="-232.62405"/>
	<node id="23" type="from" x="-59.51575" y="10.08835"/>
	<node id="24" type="to" x="-23.808799999999998" y="24.1428"/>
	<node id="25" type="from" x="-16.64985" y="19.9711"/>
	<node id="26" type="to" x="-7.518599999999999" y="-4.75135"/>
	<node id="27" type="from" x="-5.1735" y="-3.8875"/>
	<node id="28" type="to" x="-14.306249999999999" y="20.83795"/>
	<node id="29" type="from" x="-11.8615" y="28.7489"/>
	<node id="30" type="to" x="18.71185" y="40.281400000000005"/>
	<node id="31" type="from" x="156.43737499999997" y="-58.7888"/>
	<node id="32" type="to" x="77.21517499999999" y="-82.9921"/>
	<node id="33" type="from" x="-42.2106" y="-281.3797"/>
	<node id="34" type="to" x="-102.94355" y="-148.71142500000002"/>
	<node id="35" type="from" x="-103.40155" y="-37.78295"/>
	<node id="36" type="to" x="-62.3208" y="-20.658549999999998"/>
	<node id="37" type="from" x="-63.287400000000005" y="-18.3539"/>
	<node id="38" type="to" x="-104.38974999999999" y="-35.487049999999996"/>
	<node id="39" type="from" x="-17.0327" y="119.94524999999999"/>
	<node id="40" type="to" x="-154.8499" y="57.842650000000006"/>
	<node id="41" type="from" x="40.424949999999995" y="19.9831"/>
	<node id="42" type="to" x="33.8845" y="39.5224"/>
	<node id="43" type="from" x="31.511699999999998" y="38.738299999999995"/>
	<node id="44" type="to" x="38.04905" y="19.2075"/>
	<node id="45" type="from" x="-108.96119999999999" y="-46.92275"/>
	<node id="46" type="to" x="-108.04310000000001" y="-49.0137"/>
	<node id="47" type="from" x="-105.7643" y="-47.987"/>
	<node id="48" type="to" x="-106.67224999999999" y="-45.92015"/>
	<node id="49" type="from" x="-154.07385" y="-61.149"/>
	<node id="50" type="to" x="-116.88575" y="-43.74065"/>
	<node id="51" type="from" x="-117.92224999999999" y="-41.4662"/>
	<node id="52" type="to" x="-155.1338" y="-58.8848"/>
	<node id="53" type="from" x="27.68495" y="43.67045"/>
	<node id="54" type="to" x="27.92345" y="43.76075"/>
	<node id="55" type="from" x="-102.18905" y="-62.3551"/>
	<node id="56" type="to" x="-100.65725" y="-65.8423"/>
	<node id="57" type="from" x="-98.37805" y="-64.81625"/>
	<node id="58" type="to" x="-99.8917" y="-61.3703"/>
	<node id="59" type="from" x="-63.9283" y="1.0155500000000002"/>
	<node id="60" type="to" x="-59.7378" y="-10.417549999999999"/>
	<node id="61" type="from" x="-57.38275" y="-9.58025"/>
	<node id="62" type="to" x="-61.5811" y="1.8721"/>
	<node id="63" type="from" x="-94.45920000000001" y="-79.38125"/>
	<node id="64" type="to" x="-89.264" y="-90.31835000000001"/>
	<node id="65" type="from" x="-87.0141" y="-89.2307"/>
	<node id="66" type="to" x="-92.19005" y="-78.33305"/>
	<node id="67" type="from" x="-96.62265" y="-53.330299999999994"/>
	<node id="68" type="to" x="-56.237" y="-37.47880000000001"/>
	<node id="69" type="from" x="-57.1372" y="-35.1473"/>
	<node id="70" type="to" x="-97.5376" y="-51.0049"/>
	<node id="71" type="from" x="-88.9602" y="-70.30930000000001"/>
	<node id="72" type="to" x="-49.45375" y="-55.94935"/>
	<node id="73" type="from" x="-50.3184" y="-53.6044"/>
	<node id="74" type="to" x="-89.81845" y="-67.9622"/>
	<node id="75" type="from" x="-55.38745" y="-22.349600000000002"/>
	<node id="76" type="to" x="-55.2763" y="-22.6438"/>
	<node id="77" type="from" x="-52.9488" y="-21.739649999999997"/>
	<node id="78" type="to" x="-53.05265" y="-21.46015"/>
	<node id="79" type="from" x="23.3953" y="49.3427"/>
	<node id="80" type="to" x="-7.45945" y="117.02365"/>
	<node id="81" type="from" x="-9.7286" y="115.97915"/>
	<node id="82" type="to" x="21.11875" y="48.3146"/>
	<node id="83" type="from" x="-77.76255" y="-94.57249999999999"/>
	<node id="84" type="to" x="8.1764" y="-66.22555"/>
	<node id="85" type="from" x="7.33125" y="-63.8734"/>
	<node id="86" type="to" x="-78.53435" y="-92.19565"/>
	<node id="87" type="from" x="-83.7929" y="-103.2822"/>
	<node id="88" type="to" x="-75.8288" y="-123.8212"/>
	<node id="89" type="from" x="-73.4959" y="-122.926"/>
	<node id="90" type="to" x="-81.45105000000001" y="-102.4089"/>
	<node id="91" type="from" x="-35.9822" y="-51.895399999999995"/>
	<node id="92" type="to" x="-0.4315" y="-43.43885"/>
	<node id="93" type="from" x="-1.01355" y="-41.00855"/>
	<node id="94" type="to" x="-36.53935" y="-49.45885"/>
	<node id="95" type="from" x="124.0615" y="165.5581"/>
	<node id="96" type="to" x="-4.61" y="124.55535"/>
	<node id="97" type="from" x="-44.916" y="-25.52715"/>
	<node id="98" type="to" x="-10.599499999999999" y="-14.8644"/>
	<node id="99" type="from" x="-11.281600000000001" y="-12.4602"/>
	<node id="100" type="to" x="-45.6896" y="-23.150199999999998"/>
	<node id="101" type="from" x="-52.3197" y="-30.7145"/>
	<node id="102" type="to" x="-52.255700000000004" y="-30.82875"/>
	<node id="103" type="from" x="-49.8887" y="-30.07685"/>
	<node id="104" type="to" x="-49.95335" y="-29.94425"/>
	<node id="105" type="from" x="-166.4675" y="-37.4393"/>
	<node id="106" type="to" x="-71.0518" y="5.2296499999999995"/>
	<node id="107" type="from" x="-110.14715000000001" y="-134.96545000000003"/>
	<node id="108" type="to" x="-143.0082" y="-79.91957500000001"/>
	<node id="109" type="from" x="7.8025" y="-47.5226"/>
	<node id="110" type="to" x="10.973749999999999" y="-56.26285"/>
	<node id="111" type="from" x="13.33425" y="-55.44135"/>
	<node id="112" type="to" x="10.144549999999999" y="-46.64935"/>
	<node id="113" type="from" x="3.9909999999999997" y="-8.8626"/>
	<node id="114" type="to" x="35.1751" y="8.32685"/>
	<node id="115" type="from" x="33.973349999999996" y="10.51815"/>
	<node id="116" type="to" x="2.7905499999999996" y="-6.6704"/>
	<node id="117" type="from" x="-17.123575000000002" y="-339.744975"/>
	<node id="118" type="to" x="-36.56325" y="-294.48704999999995"/>
	<node id="119" type="from" x="-48.465" y="-41.18015"/>
	<node id="120" type="to" x="-46.74195" y="-45.878550000000004"/>
	<node id="121" type="from" x="-44.395399999999995" y="-45.019450000000006"/>
	<node id="122" type="to" x="-46.125550000000004" y="-40.29985"/>
</nodes>
