<!-- generated on Tue Feb  9 22:04:27 2021 by Eclipse SUMO netconvert Version 1.8.0
<configuration xmlns:xsi="http://www.w3.org/2001/XMLSchema-instance" xsi:noNamespaceSchemaLocation="http://sumo.dlr.de/xsd/netconvertConfiguration.xsd">

    <input>
        <node-files value="./converted_scenarios/scenario-factory/DEU_Moelln-7_1_I-1-1/DEU_Moelln-7_1_I-1-1.nod.xml"/>
        <edge-files value="./converted_scenarios/scenario-factory/DEU_Moelln-7_1_I-1-1/DEU_Moelln-7_1_I-1-1.edg.xml"/>
        <connection-files value="./converted_scenarios/scenario-factory/DEU_Moelln-7_1_I-1-1/DEU_Moelln-7_1_I-1-1.con.xml"/>
        <tllogic-files value="./converted_scenarios/scenario-factory/DEU_Moelln-7_1_I-1-1/DEU_Moelln-7_1_I-1-1.tll.xml"/>
        <type-files value="/home/zen/commonroad-interactive-benchmarks/install/commonroad-map-tool/crmapconverter/sumo_map/templates/DEU.typ.xml"/>
    </input>

    <output>
        <output-file value="./converted_scenarios/scenario-factory/DEU_Moelln-7_1_I-1-1/DEU_Moelln-7_1_I-1-1.net.xml"/>
    </output>

    <processing>
        <geometry.remove.keep-edges.explicit value="true"/>
        <geometry.avoid-overlap value="true"/>
        <offset.disable-normalization value="true"/>
    </processing>

    <junctions>
        <no-turnarounds value="true"/>
        <junctions.internal-link-detail value="20"/>
    </junctions>

    <report>
        <aggregate-warnings value="5"/>
    </report>

    <random_number>
        <seed value="1234"/>
    </random_number>

</configuration>
--><net xmlns:xsi="http://www.w3.org/2001/XMLSchema-instance" version="1.6" junctionCornerDetail="5" junctionLinkDetail="20" limitTurnSpeed="5.50" xsi:noNamespaceSchemaLocation="http://sumo.dlr.de/xsd/net_file.xsd">

    <location netOffset="0.00,0.00" convBoundary="378.41,916.84,528.27,1012.39" origBoundary="378.41,916.84,528.27,1012.39" projParameter="!"/>

    <type id="highway.bridleway" priority="1" speed="2.78" allow="pedestrian" oneway="1" width="2.00"/>
    <type id="highway.bus_guideway" priority="1" speed="27.78" allow="bus" oneway="1"/>
    <type id="highway.cycleway" priority="1" speed="8.33" allow="bicycle" oneway="0" width="1.00"/>
    <type id="highway.footway" priority="1" speed="2.78" allow="pedestrian" oneway="1" width="2.00"/>
    <type id="highway.ford" priority="1" speed="2.78" allow="army" oneway="0"/>
    <type id="highway.living_street" priority="2" speed="2.78" disallow="tram rail_urban rail rail_electric rail_fast ship" oneway="0"/>
    <type id="highway.motorway" priority="14" speed="39.44" allow="private emergency authority army vip passenger hov taxi bus coach delivery truck trailer motorcycle evehicle custom1 custom2" oneway="1"/>
    <type id="highway.motorway_link" priority="9" speed="22.22" allow="private emergency authority army vip passenger hov taxi bus coach delivery truck trailer motorcycle evehicle custom1 custom2" oneway="1"/>
    <type id="highway.path" priority="1" speed="2.78" allow="pedestrian bicycle" oneway="0" width="2.00"/>
    <type id="highway.pedestrian" priority="1" speed="2.78" allow="pedestrian" oneway="1" width="2.00"/>
    <type id="highway.primary" priority="12" speed="27.78" disallow="pedestrian tram rail_urban rail rail_electric rail_fast ship" oneway="0"/>
    <type id="highway.primary_link" priority="7" speed="22.22" disallow="pedestrian tram rail_urban rail rail_electric rail_fast ship" oneway="0"/>
    <type id="highway.raceway" priority="15" speed="83.33" allow="vip" oneway="0"/>
    <type id="highway.residential" priority="3" speed="13.89" disallow="pedestrian tram rail_urban rail rail_electric rail_fast ship" oneway="0"/>
    <type id="highway.secondary" priority="11" speed="27.78" disallow="pedestrian tram rail_urban rail rail_electric rail_fast ship" oneway="0"/>
    <type id="highway.secondary_link" priority="6" speed="22.22" disallow="pedestrian tram rail_urban rail rail_electric rail_fast ship" oneway="0"/>
    <type id="highway.service" priority="1" speed="5.56" allow="pedestrian delivery bicycle" oneway="0"/>
    <type id="highway.stairs" priority="1" speed="1.39" allow="pedestrian" oneway="1" width="2.00"/>
    <type id="highway.step" priority="1" speed="1.39" allow="pedestrian" oneway="1" width="2.00"/>
    <type id="highway.steps" priority="1" speed="1.39" allow="pedestrian" oneway="1" width="2.00"/>
    <type id="highway.tertiary" priority="10" speed="22.22" disallow="pedestrian tram rail_urban rail rail_electric rail_fast ship" oneway="0"/>
    <type id="highway.tertiary_link" priority="5" speed="22.22" disallow="pedestrian tram rail_urban rail rail_electric rail_fast ship" oneway="0"/>
    <type id="highway.track" priority="1" speed="5.56" allow="pedestrian motorcycle moped bicycle" oneway="0"/>
    <type id="highway.trunk" priority="13" speed="27.78" disallow="pedestrian bicycle tram rail_urban rail rail_electric rail_fast ship" oneway="0"/>
    <type id="highway.trunk_link" priority="8" speed="22.22" disallow="pedestrian bicycle tram rail_urban rail rail_electric rail_fast ship" oneway="0"/>
    <type id="highway.unclassified" priority="4" speed="13.89" disallow="pedestrian tram rail_urban rail rail_electric rail_fast ship" oneway="0"/>
    <type id="highway.unsurfaced" priority="1" speed="8.33" disallow="tram rail_urban rail rail_electric rail_fast ship" oneway="0"/>
    <type id="railway.highspeed" priority="21" speed="69.44" allow="rail_fast" oneway="1"/>
    <type id="railway.light_rail" priority="19" speed="27.78" allow="rail_urban" oneway="1"/>
    <type id="railway.preserved" priority="16" speed="27.78" allow="rail" oneway="1"/>
    <type id="railway.rail" priority="20" speed="44.44" allow="rail" oneway="1"/>
    <type id="railway.subway" priority="18" speed="27.78" allow="rail_urban" oneway="1"/>
    <type id="railway.tram" priority="17" speed="13.89" allow="tram" oneway="1"/>

    <edge id=":15_0" function="internal">
        <lane id=":15_0_0" index="0" disallow="pedestrian tram rail_urban rail rail_electric rail_fast ship" speed="36.11" length="107.11" width="3.50" shape="494.79,981.23 477.44,987.26 457.14,994.00 439.63,999.45 424.93,1003.68 412.09,1007.02 401.12,1009.51 392.08,1011.20"/>
    </edge>
    <edge id=":15_1" function="internal">
        <lane id=":15_1_0" index="0" disallow="pedestrian tram rail_urban rail rail_electric rail_fast ship" speed="21.56" length="105.44" width="3.50" shape="494.79,981.23 481.51,985.73 469.68,989.35 459.29,992.14 450.38,994.19 442.45,995.67 435.52,996.63 429.09,997.17 423.71,997.30 418.88,997.08 414.61,996.55 410.93,995.75 407.86,994.76 404.92,993.44 402.62,992.05 400.52,990.37 398.67,988.42 397.13,986.22 396.14,984.31"/>
    </edge>
    <edge id=":15_2" function="internal">
        <lane id=":15_2_0" index="0" disallow="pedestrian tram rail_urban rail rail_electric rail_fast ship" speed="20.17" length="102.12" width="3.50" shape="470.94,963.11 471.43,965.36 471.71,967.64 471.75,969.93 471.53,972.21 471.05,974.46 470.32,976.63 469.35,978.72 468.18,980.69 466.10,983.43 463.73,985.92 461.12,988.17 458.35,990.22 454.47,992.66 450.43,994.85 445.23,997.27 438.83,999.81 431.22,1002.38 423.50,1004.60 414.59,1006.82 404.48,1008.97 392.08,1011.20"/>
    </edge>
    <edge id=":15_3" function="internal">
        <lane id=":15_3_0" index="0" disallow="pedestrian tram rail_urban rail rail_electric rail_fast ship" speed="6.74" length="11.39" width="3.50" shape="391.47,1007.76 393.86,1007.18 395.54,1006.46 397.07,1005.45 398.32,1004.12 399.22,1002.53 399.69,1000.98"/>
    </edge>
    <edge id=":15_4" function="internal">
        <lane id=":15_4_0" index="0" disallow="pedestrian tram rail_urban rail rail_electric rail_fast ship" speed="19.59" length="96.35" width="3.50" shape="391.47,1007.76 403.51,1005.60 413.28,1003.54 421.89,1001.43 429.34,999.32 436.68,996.90 442.83,994.53 447.83,992.28 451.69,990.27 455.41,988.03 458.04,986.17 460.52,984.15 462.78,981.93 464.76,979.48 465.86,977.77 466.79,975.95 467.50,974.05 467.98,972.09 468.22,970.09 468.22,968.06 468.00,966.03 467.56,964.00"/>
    </edge>
    <edge id=":15_5" function="internal">
        <lane id=":15_5_0" index="0" disallow="pedestrian tram rail_urban rail rail_electric rail_fast ship" speed="36.11" length="106.48" width="3.50" shape="391.47,1007.76 400.46,1006.07 411.33,1003.60 424.09,1000.28 438.71,996.08 456.13,990.65 476.34,983.94 493.58,977.95"/>
    </edge>

    <edge id="52074" from="15" to="11" priority="3" type="highway.residential" spreadType="center" length="7.02" shape="444.54,985.80 385.16,1012.39">
        <lane id="52074_0" index="0" disallow="pedestrian tram rail_urban rail rail_electric rail_fast ship" speed="36.11" length="7.02" width="3.50" customShape="1" shape="392.08,1011.20 388.61,1011.80 385.16,1012.39"/>
    </edge>
    <edge id="52075" from="6" to="15" priority="3" type="highway.residential" spreadType="center" length="7.04" shape="384.55,1008.94 443.11,982.61">
        <lane id="52075_0" index="0" disallow="pedestrian tram rail_urban rail rail_electric rail_fast ship" speed="36.11" length="7.04" width="3.50" customShape="1" shape="384.55,1008.94 388.01,1008.35 391.49,1007.75"/>
    </edge>
    <edge id="52077" from="14" to="15" priority="3" type="highway.residential" spreadType="center" length="35.97" shape="528.27,968.26 444.11,985.95">
        <lane id="52077_0" index="0" disallow="pedestrian tram rail_urban rail rail_electric rail_fast ship" speed="36.11" length="35.97" width="3.50" customShape="1" shape="528.27,968.26 525.45,969.41 507.57,976.50 494.73,981.25"/>
    </edge>
    <edge id="52078" from="15" to="5" priority="3" type="highway.residential" spreadType="center" length="35.81" shape="443.39,982.52 526.97,965.02">
        <lane id="52078_0" index="0" disallow="pedestrian tram rail_urban rail rail_electric rail_fast ship" speed="36.11" length="35.81" width="3.50" customShape="1" shape="493.58,977.95 506.33,973.22 524.14,966.16 526.97,965.02"/>
    </edge>
    <edge id="52480" from="15" to="3" priority="3" type="highway.residential" spreadType="center" length="86.73">
        <lane id="52480_0" index="0" disallow="pedestrian tram rail_urban rail rail_electric rail_fast ship" speed="36.11" length="86.73" width="3.50" customShape="1" shape="402.69,999.70 392.98,976.90 390.17,969.35 387.56,961.20 385.17,952.46 382.90,942.64 380.72,931.27 378.41,916.84"/>
    </edge>
    <edge id="52849" from="13" to="15" priority="3" type="highway.residential" spreadType="center" length="40.15" shape="460.69,924.30 445.47,984.70">
        <lane id="52849_0" index="0" disallow="pedestrian tram rail_urban rail rail_electric rail_fast ship" speed="36.11" length="40.15" width="3.50" customShape="1" shape="460.69,924.30 465.82,943.71 470.94,963.12"/>
    </edge>
    <edge id="52850" from="15" to="8" priority="3" type="highway.residential" spreadType="center" length="40.14" shape="442.08,983.84 457.31,925.19">
        <lane id="52850_0" index="0" disallow="pedestrian tram rail_urban rail rail_electric rail_fast ship" speed="36.11" length="40.14" width="3.50" customShape="1" shape="467.56,964.00 462.43,944.60 457.31,925.19"/>
    </edge>

    <junction id="11" type="dead_end" x="385.16" y="1012.39" incLanes="52074_0" intLanes="" shape="385.45,1014.11 384.86,1010.66" rightOfWay="edgePriority"/>
    <junction id="13" type="dead_end" x="460.69" y="924.30" incLanes="" intLanes="" shape="459.00,924.74 462.38,923.85" rightOfWay="edgePriority"/>
    <junction id="14" type="dead_end" x="528.27" y="968.26" incLanes="" intLanes="" shape="527.61,966.64 528.93,969.89" rightOfWay="edgePriority"/>
    <junction id="15" type="priority" x="443.79" y="984.23" incLanes="52077_0 52849_0 52075_0" intLanes=":15_0_0 :15_1_0 :15_2_0 :15_3_0 :15_4_0 :15_5_0" shape="495.40,982.87 492.97,976.31 488.17,977.50 483.94,977.30 480.27,975.72 477.16,972.75 474.61,968.40 472.63,962.66 465.87,964.45 404.30,999.02 401.08,1000.39 400.68,1002.65 399.39,1003.64 397.38,1004.53 394.65,1005.33 391.19,1006.03 392.37,1012.93 406.93,1009.84 424.83,1005.19 444.34,999.57 463.75,993.58 481.34,987.82">
        <request index="0" response="000000" foes="000100" cont="0"/>
        <request index="1" response="111000" foes="111100" cont="0"/>
        <request index="2" response="100011" foes="100011" cont="0"/>
        <request index="3" response="000000" foes="000010" cont="0"/>
        <request index="4" response="000000" foes="000010" cont="0"/>
        <request index="5" response="000000" foes="000110" cont="0"/>
    </junction>
    <junction id="3" type="dead_end" x="378.41" y="916.84" incLanes="52480_0" intLanes="" shape="376.69,917.12 380.14,916.56" rightOfWay="edgePriority"/>
    <junction id="5" type="dead_end" x="526.97" y="965.02" incLanes="52078_0" intLanes="" shape="526.31,963.39 527.62,966.64" rightOfWay="edgePriority"/>
    <junction id="6" type="dead_end" x="384.55" y="1008.94" incLanes="" intLanes="" shape="384.85,1010.67 384.26,1007.22" rightOfWay="edgePriority"/>
    <junction id="8" type="dead_end" x="457.31" y="925.19" incLanes="52850_0" intLanes="" shape="455.61,925.64 459.00,924.74" rightOfWay="edgePriority"/>

    <connection from="52075" to="52480" fromLane="0" toLane="0" contPos="-4.00" shape="391.47,1007.76 393.86,1007.18 395.54,1006.46 397.07,1005.45 398.32,1004.12 399.22,1002.53 399.75,1000.78 399.97,998.96 399.90,996.52 399.40,993.51 398.40,989.98 396.87,985.99 396.14,984.31" via=":15_3_0" dir="r" state="M"/>
    <connection from="52075" to="52850" fromLane="0" toLane="0" contPos="-4.00" shape="391.47,1007.76 403.51,1005.60 413.28,1003.54 421.89,1001.43 429.34,999.32 436.68,996.90 442.83,994.53 447.83,992.28 451.69,990.27 455.41,988.03 458.04,986.17 460.52,984.15 462.78,981.93 464.76,979.48 465.86,977.77 466.79,975.95 467.50,974.05 467.98,972.09 468.22,970.09 468.22,968.06 468.00,966.03 467.56,964.00" via=":15_4_0" dir="R" state="M"/>
    <connection from="52075" to="52078" fromLane="0" toLane="0" contPos="-4.00" shape="391.47,1007.76 400.46,1006.07 411.33,1003.60 424.09,1000.28 438.71,996.08 456.13,990.65 476.34,983.94 493.58,977.95" via=":15_5_0" dir="s" state="M"/>
    <connection from="52077" to="52074" fromLane="0" toLane="0" contPos="-4.00" shape="494.73,981.25 477.44,987.26 457.14,994.00 439.63,999.45 424.93,1003.68 412.09,1007.02 401.12,1009.51 392.08,1011.20" via=":15_0_0" dir="s" state="M"/>
    <connection from="52077" to="52480" fromLane="0" toLane="0" contPos="-4.00" shape="494.73,981.25 481.51,985.73 469.68,989.35 459.29,992.14 450.38,994.19 442.45,995.67 435.52,996.63 429.09,997.17 423.71,997.30 418.88,997.08 414.61,996.55 410.93,995.75 407.86,994.76 404.92,993.44 402.62,992.05 400.52,990.37 398.67,988.42 397.13,986.22 396.14,984.31" via=":15_1_0" dir="L" state="m"/>
    <connection from="52849" to="52074" fromLane="0" toLane="0" contPos="-4.00" shape="470.94,963.12 471.43,965.36 471.71,967.64 471.75,969.93 471.53,972.21 471.05,974.46 470.32,976.63 469.35,978.72 468.18,980.69 466.10,983.43 463.73,985.92 461.12,988.17 458.35,990.22 454.47,992.66 450.43,994.85 445.23,997.27 438.83,999.81 431.22,1002.38 423.50,1004.60 414.59,1006.82 404.48,1008.97 392.08,1011.20" via=":15_2_0" dir="L" state="m"/>

    <connection from=":15_0" to="52074" fromLane="0" toLane="0" dir="s" state="M"/>
    <connection from=":15_1" to="52480" fromLane="0" toLane="0" dir="L" state="M"/>
    <connection from=":15_2" to="52074" fromLane="0" toLane="0" dir="L" state="M"/>
    <connection from=":15_3" to="52480" fromLane="0" toLane="0" dir="r" state="M"/>
    <connection from=":15_4" to="52850" fromLane="0" toLane="0" dir="R" state="M"/>
    <connection from=":15_5" to="52078" fromLane="0" toLane="0" dir="s" state="M"/>

</net>