<routes>
	<vehicle depart="0.1" departLane="0" departPos="31.251972675686346" departSpeed="8.779514" id="316" type="passenger">
		<route edges=":15_2 52074"/>
	</vehicle>
</routes>
