<!-- generated on Wed Feb 10 12:29:37 2021 by Eclipse SUMO netconvert Version 1.8.0
<configuration xmlns:xsi="http://www.w3.org/2001/XMLSchema-instance" xsi:noNamespaceSchemaLocation="http://sumo.dlr.de/xsd/netconvertConfiguration.xsd">

    <input>
        <node-files value="./converted_scenarios/SUMO/DEU_Lohmar-6_1_I-1-1/DEU_Lohmar-6_1_I-1-1.nod.xml"/>
        <edge-files value="./converted_scenarios/SUMO/DEU_Lohmar-6_1_I-1-1/DEU_Lohmar-6_1_I-1-1.edg.xml"/>
        <connection-files value="./converted_scenarios/SUMO/DEU_Lohmar-6_1_I-1-1/DEU_Lohmar-6_1_I-1-1.con.xml"/>
        <tllogic-files value="./converted_scenarios/SUMO/DEU_Lohmar-6_1_I-1-1/DEU_Lohmar-6_1_I-1-1.tll.xml"/>
        <type-files value="/home/zen/commonroad-interactive-benchmarks/install/commonroad-map-tool/crmapconverter/sumo_map/templates/DEU.typ.xml"/>
    </input>

    <output>
        <output-file value="./converted_scenarios/SUMO/DEU_Lohmar-6_1_I-1-1/DEU_Lohmar-6_1_I-1-1.net.xml"/>
    </output>

    <processing>
        <geometry.remove.keep-edges.explicit value="true"/>
        <geometry.avoid-overlap value="true"/>
        <offset.disable-normalization value="true"/>
    </processing>

    <junctions>
        <no-turnarounds value="true"/>
        <junctions.internal-link-detail value="20"/>
    </junctions>

    <report>
        <aggregate-warnings value="5"/>
    </report>

    <random_number>
        <seed value="1234"/>
    </random_number>

</configuration>
--><net xmlns:xsi="http://www.w3.org/2001/XMLSchema-instance" version="1.6" junctionCornerDetail="5" junctionLinkDetail="20" limitTurnSpeed="5.50" xsi:noNamespaceSchemaLocation="http://sumo.dlr.de/xsd/net_file.xsd">

    <location netOffset="0.00,0.00" convBoundary="-56.83,-48.43,281.83,47.20" origBoundary="-56.83,-55.10,281.83,47.20" projParameter="!"/>

    <type id="highway.bridleway" priority="1" speed="2.78" allow="pedestrian" oneway="1" width="2.00"/>
    <type id="highway.bus_guideway" priority="1" speed="27.78" allow="bus" oneway="1"/>
    <type id="highway.cycleway" priority="1" speed="8.33" allow="bicycle" oneway="0" width="1.00"/>
    <type id="highway.footway" priority="1" speed="2.78" allow="pedestrian" oneway="1" width="2.00"/>
    <type id="highway.ford" priority="1" speed="2.78" allow="army" oneway="0"/>
    <type id="highway.living_street" priority="2" speed="2.78" disallow="tram rail_urban rail rail_electric rail_fast ship" oneway="0"/>
    <type id="highway.motorway" priority="14" speed="39.44" allow="private emergency authority army vip passenger hov taxi bus coach delivery truck trailer motorcycle evehicle custom1 custom2" oneway="1"/>
    <type id="highway.motorway_link" priority="9" speed="22.22" allow="private emergency authority army vip passenger hov taxi bus coach delivery truck trailer motorcycle evehicle custom1 custom2" oneway="1"/>
    <type id="highway.path" priority="1" speed="2.78" allow="pedestrian bicycle" oneway="0" width="2.00"/>
    <type id="highway.pedestrian" priority="1" speed="2.78" allow="pedestrian" oneway="1" width="2.00"/>
    <type id="highway.primary" priority="12" speed="27.78" disallow="pedestrian tram rail_urban rail rail_electric rail_fast ship" oneway="0"/>
    <type id="highway.primary_link" priority="7" speed="22.22" disallow="pedestrian tram rail_urban rail rail_electric rail_fast ship" oneway="0"/>
    <type id="highway.raceway" priority="15" speed="83.33" allow="vip" oneway="0"/>
    <type id="highway.residential" priority="3" speed="13.89" disallow="pedestrian tram rail_urban rail rail_electric rail_fast ship" oneway="0"/>
    <type id="highway.secondary" priority="11" speed="27.78" disallow="pedestrian tram rail_urban rail rail_electric rail_fast ship" oneway="0"/>
    <type id="highway.secondary_link" priority="6" speed="22.22" disallow="pedestrian tram rail_urban rail rail_electric rail_fast ship" oneway="0"/>
    <type id="highway.service" priority="1" speed="5.56" allow="pedestrian delivery bicycle" oneway="0"/>
    <type id="highway.stairs" priority="1" speed="1.39" allow="pedestrian" oneway="1" width="2.00"/>
    <type id="highway.step" priority="1" speed="1.39" allow="pedestrian" oneway="1" width="2.00"/>
    <type id="highway.steps" priority="1" speed="1.39" allow="pedestrian" oneway="1" width="2.00"/>
    <type id="highway.tertiary" priority="10" speed="22.22" disallow="pedestrian tram rail_urban rail rail_electric rail_fast ship" oneway="0"/>
    <type id="highway.tertiary_link" priority="5" speed="22.22" disallow="pedestrian tram rail_urban rail rail_electric rail_fast ship" oneway="0"/>
    <type id="highway.track" priority="1" speed="5.56" allow="pedestrian motorcycle moped bicycle" oneway="0"/>
    <type id="highway.trunk" priority="13" speed="27.78" disallow="pedestrian bicycle tram rail_urban rail rail_electric rail_fast ship" oneway="0"/>
    <type id="highway.trunk_link" priority="8" speed="22.22" disallow="pedestrian bicycle tram rail_urban rail rail_electric rail_fast ship" oneway="0"/>
    <type id="highway.unclassified" priority="4" speed="13.89" disallow="pedestrian tram rail_urban rail rail_electric rail_fast ship" oneway="0"/>
    <type id="highway.unsurfaced" priority="1" speed="8.33" disallow="tram rail_urban rail rail_electric rail_fast ship" oneway="0"/>
    <type id="railway.highspeed" priority="21" speed="69.44" allow="rail_fast" oneway="1"/>
    <type id="railway.light_rail" priority="19" speed="27.78" allow="rail_urban" oneway="1"/>
    <type id="railway.preserved" priority="16" speed="27.78" allow="rail" oneway="1"/>
    <type id="railway.rail" priority="20" speed="44.44" allow="rail" oneway="1"/>
    <type id="railway.subway" priority="18" speed="27.78" allow="rail_urban" oneway="1"/>
    <type id="railway.tram" priority="17" speed="13.89" allow="tram" oneway="1"/>

    <edge id=":29_0" function="internal">
        <lane id=":29_0_0" index="0" disallow="pedestrian tram rail_urban rail rail_electric rail_fast ship" speed="22.60" length="21.49" width="3.50" shape="208.73,4.93 207.70,3.88 205.47,1.93 202.66,-0.10 199.22,-2.12 195.14,-4.07 190.40,-5.90"/>
    </edge>
    <edge id=":29_1" function="internal">
        <lane id=":29_1_0" index="0" disallow="pedestrian tram rail_urban rail rail_electric rail_fast ship" speed="33.87" length="22.55" width="3.50" shape="212.84,-5.29 204.47,-4.84 198.18,-4.83 194.00,-5.14 191.43,-5.60 190.40,-5.90"/>
    </edge>
    <edge id=":29_2" function="internal">
        <lane id=":29_2_0" index="0" disallow="pedestrian tram rail_urban rail rail_electric rail_fast ship" speed="32.95" length="21.20" width="3.50" shape="191.52,-9.21 192.35,-8.97 194.67,-8.57 198.57,-8.31 204.56,-8.34 212.63,-8.78"/>
    </edge>
    <edge id=":29_3" function="internal">
        <lane id=":29_3_0" index="0" disallow="pedestrian tram rail_urban rail rail_electric rail_fast ship" speed="23.45" length="23.19" width="3.50" shape="191.52,-9.21 196.58,-7.26 200.95,-5.16 204.65,-2.97 207.71,-0.76 210.13,1.37 211.27,2.52"/>
    </edge>
    <edge id=":30_0" function="internal">
        <lane id=":30_0_0" index="0" disallow="pedestrian tram rail_urban rail rail_electric rail_fast ship" speed="7.57" length="11.68" width="3.50" shape="21.39,-37.53 20.84,-39.04 20.16,-40.36 19.26,-41.50 18.59,-42.07 17.85,-42.51 17.04,-42.83 15.62,-43.07 14.13,-43.03 12.56,-42.77"/>
    </edge>
    <edge id=":30_1" function="internal">
        <lane id=":30_1_0" index="0" disallow="pedestrian tram rail_urban rail rail_electric rail_fast ship" speed="8.18" length="16.39" width="3.50" shape="21.38,-37.52 21.03,-38.93 20.77,-40.99 20.82,-42.51 21.16,-44.03 21.84,-45.51 22.84,-46.77 24.06,-47.77 25.36,-48.50 26.73,-49.01 28.68,-49.50"/>
    </edge>
    <edge id=":30_2" function="internal">
        <lane id=":30_2_0" index="0" disallow="pedestrian tram rail_urban rail rail_electric rail_fast ship" speed="6.63" length="10.34" width="3.50" shape="29.32,-46.06 27.95,-45.72 27.07,-45.38 26.25,-44.93 25.51,-44.34 24.94,-43.60 24.54,-42.74 24.35,-41.82 24.32,-40.88 24.49,-39.48 24.72,-38.58"/>
    </edge>
    <edge id=":30_3" function="internal">
        <lane id=":30_3_0" index="0" disallow="pedestrian tram rail_urban rail rail_electric rail_fast ship" speed="36.11" length="17.08" width="3.50" shape="29.32,-46.06 23.37,-44.97 12.56,-42.77"/>
    </edge>
    <edge id=":30_4" function="internal">
        <lane id=":30_4_0" index="0" disallow="pedestrian tram rail_urban rail rail_electric rail_fast ship" speed="36.11" length="17.21" width="3.50" shape="11.79,-46.18 22.70,-48.41 28.68,-49.50"/>
    </edge>
    <edge id=":30_5" function="internal">
        <lane id=":30_5_0" index="0" disallow="pedestrian tram rail_urban rail rail_electric rail_fast ship" speed="8.99" length="16.94" width="3.50" shape="11.79,-46.19 13.93,-46.53 16.04,-46.58 18.12,-46.22 19.44,-45.72 20.65,-45.00 21.71,-44.08 23.02,-42.43 24.00,-40.56 24.72,-38.58"/>
    </edge>
    <edge id=":31_0" function="internal">
        <lane id=":31_0_0" index="0" disallow="pedestrian tram rail_urban rail rail_electric rail_fast ship" speed="8.02" length="12.01" width="3.50" shape="60.65,-41.60 60.04,-43.87 59.47,-45.30 58.75,-46.59 57.84,-47.68 57.17,-48.23 56.43,-48.66 55.60,-48.96 54.75,-49.14 53.00,-49.16"/>
    </edge>
    <edge id=":31_1" function="internal">
        <lane id=":31_1_0" index="0" disallow="pedestrian tram rail_urban rail rail_electric rail_fast ship" speed="8.15" length="17.09" width="3.50" shape="60.65,-41.60 60.36,-43.13 60.18,-45.16 60.31,-47.25 60.68,-48.75 61.34,-50.16 62.31,-51.44 63.54,-52.45 64.90,-53.17 66.34,-53.63 68.36,-53.96"/>
    </edge>
    <edge id=":31_2" function="internal">
        <lane id=":31_2_0" index="0" disallow="pedestrian tram rail_urban rail rail_electric rail_fast ship" speed="6.60" length="10.72" width="3.50" shape="68.56,-50.45 67.28,-50.24 66.39,-49.94 65.56,-49.48 64.86,-48.86 64.32,-48.08 63.97,-47.21 63.77,-46.29 63.72,-44.87 63.85,-43.46 64.02,-42.54"/>
    </edge>
    <edge id=":31_3" function="internal">
        <lane id=":31_3_0" index="0" disallow="pedestrian tram rail_urban rail rail_electric rail_fast ship" speed="36.11" length="15.61" width="3.50" shape="68.56,-50.46 65.61,-50.21 53.00,-49.16"/>
    </edge>
    <edge id=":31_4" function="internal">
        <lane id=":31_4_0" index="0" disallow="pedestrian tram rail_urban rail rail_electric rail_fast ship" speed="36.11" length="15.67" width="3.50" shape="52.74,-52.65 65.32,-53.70 68.36,-53.96"/>
    </edge>
    <edge id=":31_5" function="internal">
        <lane id=":31_5_0" index="0" disallow="pedestrian tram rail_urban rail rail_electric rail_fast ship" speed="9.39" length="16.86" width="3.50" shape="52.74,-52.65 55.15,-52.63 56.51,-52.38 57.81,-51.93 59.02,-51.28 60.11,-50.43 61.47,-48.88 62.51,-47.10 63.29,-45.19 64.02,-42.54"/>
    </edge>

    <edge id="100" from="30" to="24" priority="3" type="highway.residential" spreadType="center" length="70.01" shape="21.73,-41.72 -56.11,-29.53">
        <lane id="100_0" index="0" disallow="pedestrian tram rail_urban rail rail_electric rail_fast ship" speed="36.11" length="70.01" width="3.50" customShape="1" shape="12.56,-42.77 -3.54,-39.15 -38.44,-31.72 -45.95,-30.46 -52.59,-29.71 -56.11,-29.53"/>
    </edge>
    <edge id="101" from="16" to="30" priority="3" type="highway.residential" spreadType="center" length="70.00" shape="-56.83,-32.99 21.18,-45.18">
        <lane id="101_0" index="0" disallow="pedestrian tram rail_urban rail rail_electric rail_fast ship" speed="36.11" length="70.00" width="3.50" customShape="1" shape="-56.83,-32.99 -52.88,-33.20 -46.44,-33.92 -39.10,-35.16 -4.29,-42.57 11.84,-46.19"/>
    </edge>
    <edge id="103" from="31" to="30" priority="3" type="highway.residential" spreadType="center" length="23.97" shape="61.63,-46.70 21.63,-41.71">
        <lane id="103_0" index="0" disallow="pedestrian tram rail_urban rail rail_electric rail_fast ship" speed="36.11" length="23.97" width="3.50" customShape="1" shape="53.00,-49.16 47.71,-48.77 40.71,-47.93 29.25,-46.04"/>
    </edge>
    <edge id="104" from="30" to="31" priority="3" type="highway.residential" spreadType="center" length="24.28" shape="21.20,-45.18 61.20,-50.17">
        <lane id="104_0" index="0" disallow="pedestrian tram rail_urban rail rail_electric rail_fast ship" speed="36.11" length="24.28" width="3.50" customShape="1" shape="28.68,-49.50 40.22,-51.39 47.39,-52.25 52.74,-52.65"/>
    </edge>
    <edge id="106" from="29" to="31" priority="3" type="highway.residential" spreadType="center" length="133.79" shape="204.05,-1.95 60.80,-46.77">
        <lane id="106_0" index="0" disallow="pedestrian tram rail_urban rail rail_electric rail_fast ship" speed="36.11" length="133.79" width="3.50" customShape="1" shape="190.40,-5.90 174.65,-11.26 167.99,-13.86 162.40,-16.43 157.84,-18.89 153.92,-21.39 149.38,-24.74 137.33,-34.67 132.58,-38.21 128.45,-40.85 122.74,-43.88 117.32,-46.38 112.70,-48.15 107.97,-49.59 103.16,-50.66 98.75,-51.29 93.81,-51.60 88.33,-51.58 68.56,-50.46"/>
    </edge>
    <edge id="107" from="31" to="29" priority="3" type="highway.residential" spreadType="center" length="135.14" shape="61.84,-50.10 205.09,-5.29">
        <lane id="107_0" index="0" disallow="pedestrian tram rail_urban rail rail_electric rail_fast ship" speed="36.11" length="135.14" width="3.50" customShape="1" shape="68.36,-53.96 88.23,-55.08 93.92,-55.10 99.12,-54.77 103.80,-54.10 108.87,-52.97 113.84,-51.46 118.68,-49.60 124.30,-47.02 130.22,-43.86 134.57,-41.08 139.50,-37.41 151.53,-27.50 155.90,-24.28 159.61,-21.91 163.96,-19.57 169.35,-17.08 175.84,-14.55 191.53,-9.21"/>
    </edge>
    <edge id="109" from="26" to="29" priority="3" type="highway.residential" spreadType="center" length="70.04" shape="263.48,47.20 203.43,-2.30">
        <lane id="109_0" index="0" disallow="pedestrian tram rail_urban rail rail_electric rail_fast ship" speed="36.11" length="70.04" width="3.50" customShape="1" shape="263.48,47.20 260.76,46.42 255.89,44.68 251.57,42.77 249.19,41.32 241.34,35.28 233.08,28.29 222.99,19.24 215.25,11.96 208.71,4.90"/>
    </edge>
    <edge id="110" from="29" to="15" priority="3" type="highway.residential" spreadType="center" length="70.00" shape="205.64,-5.00 266.23,44.35">
        <lane id="110_0" index="0" disallow="pedestrian tram rail_urban rail rail_electric rail_fast ship" speed="36.11" length="70.00" width="3.50" customShape="1" shape="211.27,2.52 217.73,9.50 225.35,16.66 235.38,25.65 243.54,32.55 251.17,38.44 253.16,39.65 257.18,41.43 261.83,43.09 266.23,44.35"/>
    </edge>
    <edge id="234" from="9" to="30" priority="3" type="highway.residential" spreadType="center" length="24.48" shape="30.24,-14.78 19.74,-42.93">
        <lane id="234_0" index="0" disallow="pedestrian tram rail_urban rail rail_electric rail_fast ship" speed="36.11" length="24.48" width="3.50" customShape="1" shape="30.24,-14.78 29.42,-16.60 25.68,-24.91 23.68,-30.23 21.37,-37.56"/>
    </edge>
    <edge id="235" from="30" to="8" priority="3" type="highway.residential" spreadType="center" length="24.02" shape="23.02,-44.15 33.43,-16.23">
        <lane id="235_0" index="0" disallow="pedestrian tram rail_urban rail rail_electric rail_fast ship" speed="36.11" length="24.02" width="3.50" customShape="1" shape="24.72,-38.58 26.99,-31.38 28.91,-26.25 32.60,-18.05 33.43,-16.23"/>
    </edge>
    <edge id="261" from="31" to="2" priority="3" type="highway.residential" spreadType="center" length="29.48" shape="62.34,-49.86 88.47,-29.29">
        <lane id="261_0" index="0" disallow="pedestrian tram rail_urban rail rail_electric rail_fast ship" speed="36.11" length="29.48" width="3.50" customShape="1" shape="64.02,-42.54 64.52,-40.75 65.06,-39.57 65.77,-38.47 66.92,-37.16 68.30,-35.99 70.25,-34.72 73.75,-32.93 75.93,-32.04 78.64,-31.25 83.44,-30.31 88.47,-29.29"/>
    </edge>
    <edge id="262" from="27" to="31" priority="3" type="highway.residential" spreadType="center" length="33.25" shape="87.71,-25.88 60.20,-47.10">
        <lane id="262_0" index="0" disallow="pedestrian tram rail_urban rail rail_electric rail_fast ship" speed="36.11" length="33.25" width="3.50" customShape="1" shape="87.71,-25.88 82.80,-26.87 77.81,-27.85 74.75,-28.74 72.26,-29.76 68.49,-31.70 66.18,-33.21 64.45,-34.69 62.94,-36.42 61.97,-37.94 61.22,-39.58 60.65,-41.60"/>
    </edge>
    <edge id="85" from="3" to="29" priority="3" type="highway.residential" spreadType="center" length="70.06" shape="281.83,5.55 204.36,-1.88">
        <lane id="85_0" index="0" disallow="pedestrian tram rail_urban rail rail_electric rail_fast ship" speed="36.11" length="70.06" width="3.50" customShape="1" shape="281.83,5.55 257.83,1.09 247.34,-1.02 235.02,-3.58 228.12,-4.68 222.19,-5.29 217.25,-5.48 212.78,-5.28"/>
    </edge>
    <edge id="86" from="29" to="28" priority="3" type="highway.residential" spreadType="center" length="70.00" shape="204.69,-5.37 281.63,1.95">
        <lane id="86_0" index="0" disallow="pedestrian tram rail_urban rail rail_electric rail_fast ship" speed="36.11" length="70.00" width="3.50" customShape="1" shape="212.63,-8.78 217.25,-8.97 222.44,-8.78 228.58,-8.15 235.66,-7.02 248.06,-4.44 258.47,-2.35 281.63,1.95"/>
    </edge>

    <junction id="15" type="dead_end" x="266.23" y="44.35" incLanes="110_0" intLanes="" shape="266.71,42.67 265.75,46.03" rightOfWay="edgePriority"/>
    <junction id="16" type="dead_end" x="-56.83" y="-32.99" incLanes="" intLanes="" shape="-56.74,-31.24 -56.92,-34.74" rightOfWay="edgePriority"/>
    <junction id="2" type="dead_end" x="88.47" y="-29.29" incLanes="261_0" intLanes="" shape="88.81,-31.01 88.12,-27.58" rightOfWay="edgePriority"/>
    <junction id="24" type="dead_end" x="-56.11" y="-29.53" incLanes="100_0" intLanes="" shape="-56.01,-27.78 -56.20,-31.27" rightOfWay="edgePriority"/>
    <junction id="26" type="dead_end" x="263.48" y="47.20" incLanes="" intLanes="" shape="263.96,45.52 263.00,48.88" rightOfWay="edgePriority"/>
    <junction id="27" type="dead_end" x="87.71" y="-25.88" incLanes="" intLanes="" shape="88.05,-27.59 87.36,-24.16" rightOfWay="edgePriority"/>
    <junction id="28" type="dead_end" x="281.63" y="1.95" incLanes="86_0" intLanes="" shape="281.95,0.23 281.31,3.67" rightOfWay="edgePriority"/>
    <junction id="29" type="priority" x="204.57" y="-3.62" incLanes="109_0 85_0 107_0" intLanes=":29_0_0 :29_1_0 :29_2_0 :29_3_0" shape="207.42,6.09 212.56,1.33 210.67,-1.28 210.47,-2.22 210.76,-2.91 211.56,-3.35 212.85,-3.54 212.56,-10.53 208.16,-10.18 204.86,-9.69 202.12,-9.30 199.43,-9.22 196.26,-9.67 192.09,-10.87 189.84,-4.25 194.01,-2.86 197.15,-1.77 199.65,-0.65 201.93,0.81 204.38,2.95">
        <request index="0" response="0010" foes="0010" cont="0"/>
        <request index="1" response="0000" foes="1001" cont="0"/>
        <request index="2" response="0000" foes="0000" cont="0"/>
        <request index="3" response="0010" foes="0010" cont="0"/>
    </junction>
    <junction id="3" type="dead_end" x="281.83" y="5.55" incLanes="" intLanes="" shape="282.15,3.83 281.51,7.27" rightOfWay="edgePriority"/>
    <junction id="30" type="priority" x="21.42" y="-43.44" incLanes="234_0 103_0 101_0" intLanes=":30_0_0 :30_1_0 :30_2_0 :30_3_0 :30_4_0 :30_5_0" shape="19.72,-37.00 26.39,-39.10 26.11,-41.67 26.47,-42.64 27.16,-43.41 28.18,-43.97 29.53,-44.32 28.40,-51.22 11.41,-47.89 12.94,-41.06 15.97,-41.12 17.20,-40.62 18.23,-39.77 19.07,-38.56">
        <request index="0" response="001000" foes="001000" cont="0"/>
        <request index="1" response="111000" foes="111000" cont="0"/>
        <request index="2" response="000000" foes="100000" cont="0"/>
        <request index="3" response="000000" foes="100011" cont="0"/>
        <request index="4" response="000000" foes="000010" cont="0"/>
        <request index="5" response="001100" foes="001110" cont="0"/>
    </junction>
    <junction id="31" type="priority" x="61.34" y="-48.43" incLanes="262_0 106_0 104_0" intLanes=":31_0_0 :31_1_0 :31_2_0 :31_3_0 :31_4_0 :31_5_0" shape="58.97,-41.14 65.71,-43.00 65.36,-46.07 65.69,-47.16 66.35,-47.97 67.34,-48.49 68.66,-48.72 68.27,-55.70 52.61,-54.39 53.13,-47.42 55.55,-46.85 56.59,-46.00 57.50,-44.76 58.29,-43.14">
        <request index="0" response="001000" foes="001000" cont="0"/>
        <request index="1" response="111000" foes="111000" cont="0"/>
        <request index="2" response="000000" foes="100000" cont="0"/>
        <request index="3" response="000000" foes="100011" cont="0"/>
        <request index="4" response="000000" foes="000010" cont="0"/>
        <request index="5" response="001100" foes="001110" cont="0"/>
    </junction>
    <junction id="8" type="dead_end" x="33.43" y="-16.23" incLanes="235_0" intLanes="" shape="35.02,-16.95 31.84,-15.50" rightOfWay="edgePriority"/>
    <junction id="9" type="dead_end" x="30.24" y="-14.78" incLanes="" intLanes="" shape="31.84,-15.51 28.65,-14.06" rightOfWay="edgePriority"/>

    <connection from="101" to="104" fromLane="0" toLane="0" contPos="-4.00" shape="11.84,-46.19 22.70,-48.41 28.68,-49.50" via=":30_4_0" dir="s" state="M"/>
    <connection from="101" to="235" fromLane="0" toLane="0" contPos="-4.00" shape="11.84,-46.19 13.93,-46.53 16.04,-46.58 18.12,-46.22 19.44,-45.72 20.65,-45.00 21.71,-44.08 23.02,-42.43 24.00,-40.56 24.72,-38.58" via=":30_5_0" dir="l" state="m"/>
    <connection from="103" to="235" fromLane="0" toLane="0" contPos="-4.00" shape="29.32,-46.06 27.95,-45.72 27.07,-45.38 26.25,-44.93 25.51,-44.34 24.94,-43.60 24.54,-42.74 24.35,-41.82 24.32,-40.88 24.49,-39.48 24.72,-38.58" via=":30_2_0" dir="r" state="M"/>
    <connection from="103" to="100" fromLane="0" toLane="0" contPos="-4.00" shape="29.32,-46.06 23.37,-44.97 12.56,-42.77" via=":30_3_0" dir="s" state="M"/>
    <connection from="104" to="107" fromLane="0" toLane="0" contPos="-4.00" shape="53.08,-52.67 65.32,-53.70 68.36,-53.96" via=":31_4_0" dir="s" state="M"/>
    <connection from="104" to="261" fromLane="0" toLane="0" contPos="-4.00" shape="53.08,-52.67 55.15,-52.63 56.51,-52.38 57.81,-51.93 59.02,-51.28 60.11,-50.43 61.47,-48.88 62.51,-47.10 63.29,-45.19 64.02,-42.54" via=":31_5_0" dir="l" state="m"/>
    <connection from="106" to="261" fromLane="0" toLane="0" contPos="-4.00" shape="68.68,-50.47 67.28,-50.24 66.39,-49.94 65.56,-49.48 64.86,-48.86 64.32,-48.08 63.97,-47.21 63.77,-46.29 63.72,-44.87 63.85,-43.46 64.02,-42.54" via=":31_2_0" dir="r" state="M"/>
    <connection from="106" to="103" fromLane="0" toLane="0" contPos="-4.00" shape="68.68,-50.47 65.61,-50.21 53.26,-49.18" via=":31_3_0" dir="s" state="M"/>
    <connection from="107" to="86" fromLane="0" toLane="0" contPos="-4.00" shape="191.53,-9.21 192.35,-8.97 194.67,-8.57 198.57,-8.31 204.56,-8.34 212.63,-8.78" via=":29_2_0" dir="s" state="M"/>
    <connection from="107" to="110" fromLane="0" toLane="0" contPos="-4.00" shape="191.53,-9.21 196.58,-7.26 200.95,-5.16 204.65,-2.97 207.71,-0.76 210.13,1.37 211.27,2.52" via=":29_3_0" dir="L" state="m"/>
    <connection from="109" to="106" fromLane="0" toLane="0" contPos="-4.00" shape="208.73,4.93 207.70,3.88 205.47,1.93 202.66,-0.10 199.22,-2.12 195.14,-4.07 190.40,-5.90" via=":29_0_0" dir="s" state="m"/>
    <connection from="234" to="100" fromLane="0" toLane="0" contPos="-4.00" shape="21.37,-37.56 20.84,-39.04 20.16,-40.36 19.26,-41.50 18.59,-42.07 17.85,-42.51 17.04,-42.83 15.62,-43.07 14.13,-43.03 12.56,-42.77" via=":30_0_0" dir="r" state="m"/>
    <connection from="234" to="104" fromLane="0" toLane="0" contPos="-4.00" shape="21.37,-37.56 21.03,-38.93 20.77,-40.99 20.82,-42.51 21.16,-44.03 21.84,-45.51 22.84,-46.77 24.06,-47.77 25.36,-48.50 26.73,-49.01 28.68,-49.50" via=":30_1_0" dir="l" state="m"/>
    <connection from="262" to="103" fromLane="0" toLane="0" contPos="-4.00" shape="60.61,-41.76 60.04,-43.87 59.47,-45.30 58.75,-46.59 57.84,-47.68 57.17,-48.23 56.43,-48.66 55.60,-48.96 54.75,-49.14 53.26,-49.18" via=":31_0_0" dir="r" state="m"/>
    <connection from="262" to="107" fromLane="0" toLane="0" contPos="-4.00" shape="60.61,-41.76 60.36,-43.13 60.18,-45.16 60.31,-47.25 60.68,-48.75 61.34,-50.16 62.31,-51.44 63.54,-52.45 64.90,-53.17 66.34,-53.63 68.36,-53.96" via=":31_1_0" dir="l" state="m"/>
    <connection from="85" to="106" fromLane="0" toLane="0" contPos="-4.00" shape="212.84,-5.29 204.47,-4.84 198.18,-4.83 194.00,-5.14 191.43,-5.60 190.40,-5.90" via=":29_1_0" dir="s" state="M"/>

    <connection from=":29_0" to="106" fromLane="0" toLane="0" dir="s" state="M"/>
    <connection from=":29_1" to="106" fromLane="0" toLane="0" dir="s" state="M"/>
    <connection from=":29_2" to="86" fromLane="0" toLane="0" dir="s" state="M"/>
    <connection from=":29_3" to="110" fromLane="0" toLane="0" dir="L" state="M"/>
    <connection from=":30_0" to="100" fromLane="0" toLane="0" dir="r" state="M"/>
    <connection from=":30_1" to="104" fromLane="0" toLane="0" dir="l" state="M"/>
    <connection from=":30_2" to="235" fromLane="0" toLane="0" dir="r" state="M"/>
    <connection from=":30_3" to="100" fromLane="0" toLane="0" dir="s" state="M"/>
    <connection from=":30_4" to="104" fromLane="0" toLane="0" dir="s" state="M"/>
    <connection from=":30_5" to="235" fromLane="0" toLane="0" dir="l" state="M"/>
    <connection from=":31_0" to="103" fromLane="0" toLane="0" dir="r" state="M"/>
    <connection from=":31_1" to="107" fromLane="0" toLane="0" dir="l" state="M"/>
    <connection from=":31_2" to="261" fromLane="0" toLane="0" dir="r" state="M"/>
    <connection from=":31_3" to="103" fromLane="0" toLane="0" dir="s" state="M"/>
    <connection from=":31_4" to="107" fromLane="0" toLane="0" dir="s" state="M"/>
    <connection from=":31_5" to="261" fromLane="0" toLane="0" dir="l" state="M"/>

</net>