<routes>
	<vehicle depart="0.1" departLane="0" departPos="18.21966808752065" departSpeed="0.0" id="314" type="bicycle">
		<route edges="262 103"/>
	</vehicle>
	<vehicle depart="0.1" departLane="0" departPos="18.735307424690244" departSpeed="0.072040514" id="317" type="bicycle">
		<route edges="104 261"/>
	</vehicle>
	<vehicle depart="0.1" departLane="0" departPos="56.71593760828657" departSpeed="0.0" id="32" type="passenger">
		<route edges="109 106"/>
	</vehicle>
	<vehicle depart="0.1" departLane="0" departPos="70.33062929003592" departSpeed="0.0" id="38" type="passenger">
		<route edges="109 106"/>
	</vehicle>
	<vehicle depart="0.1" departLane="0" departPos="23.77036329700921" departSpeed="0.0" id="39" type="passenger">
		<route edges="262 103"/>
	</vehicle>
	<vehicle depart="0.1" departLane="0" departPos="63.62283888289277" departSpeed="0.0" id="310" type="passenger">
		<route edges="109 106"/>
	</vehicle>
	<vehicle depart="0.1" departLane="0" departPos="49.81105455025402" departSpeed="3.3557587e-05" id="312" type="passenger">
		<route edges="109 106"/>
	</vehicle>
	<vehicle depart="0.1" departLane="0" departPos="135.029134422447" departSpeed="0.0" id="316" type="passenger">
		<route edges="107 110"/>
	</vehicle>
	<vehicle depart="0.1" departLane="0" departPos="14.132595607516434" departSpeed="0.0" id="318" type="passenger">
		<route edges="262 103"/>
	</vehicle>
	<vehicle depart="0.1" departLane="0" departPos="24.430225960040822" departSpeed="0.0" id="319" type="passenger">
		<route edges="104 261"/>
	</vehicle>
	<vehicle depart="0.1" departLane="0" departPos="134.79971338178515" departSpeed="7.5251615" id="320" type="passenger">
		<route edges="106 103 100"/>
	</vehicle>
	<vehicle depart="0.1" departLane="0" departPos="119.77998061443157" departSpeed="7.8976333" id="322" type="passenger">
		<route edges="106 103 100"/>
	</vehicle>
	<vehicle depart="0.1" departLane="0" departPos="43.0117193580327" departSpeed="0.00027011113" id="323" type="passenger">
		<route edges="109 106"/>
	</vehicle>
	<vehicle depart="0.1" departLane="0" departPos="17.256250540268532" departSpeed="0.025506663" id="324" type="passenger">
		<route edges="104 261"/>
	</vehicle>
	<vehicle depart="0.1" departLane="0" departPos="104.0537011448469" departSpeed="8.2674788" id="325" type="passenger">
		<route edges="106 103 100"/>
	</vehicle>
	<vehicle depart="0.1" departLane="0" departPos="87.74809991433003" departSpeed="8.5166466" id="327" type="passenger">
		<route edges="106 103 100"/>
	</vehicle>
	<vehicle depart="0.1" departLane="0" departPos="71.37020062384008" departSpeed="8.7703774" id="329" type="passenger">
		<route edges="106 103 100"/>
	</vehicle>
	<vehicle depart="0.1" departLane="0" departPos="7.072949390716658" departSpeed="2.8290413e-05" id="330" type="passenger">
		<route edges="262 103"/>
	</vehicle>
	<vehicle depart="0.1" departLane="0" departPos="70.9470964770868" departSpeed="2.1945561" id="332" type="passenger">
		<route edges="101 104 261"/>
	</vehicle>
	<vehicle depart="0.1" departLane="0" departPos="31.38388647334845" departSpeed="0.0066605274" id="333" type="passenger">
		<route edges="109 106"/>
	</vehicle>
	<vehicle depart="0.1" departLane="0" departPos="24.653387469422604" departSpeed="0.028071812" id="334" type="passenger">
		<route edges="109 106"/>
	</vehicle>
	<vehicle depart="0.1" departLane="0" departPos="53.05416491766437" departSpeed="9.666189" id="336" type="passenger">
		<route edges="106 103 100"/>
	</vehicle>
	<vehicle depart="0.1" departLane="0" departPos="17.45831684443912" departSpeed="0.090193447" id="337" type="passenger">
		<route edges="109 106"/>
	</vehicle>
	<vehicle depart="0.1" departLane="0" departPos="34.13025720266173" departSpeed="10.39975" id="338" type="passenger">
		<route edges="106 103"/>
	</vehicle>
	<vehicle depart="0.1" departLane="0" departPos="15.77947893443972" departSpeed="10.583106" id="339" type="passenger">
		<route edges="106 103"/>
	</vehicle>
	<vehicle depart="0.1" departLane="0" departPos="2.5" departSpeed="10.396967" id="342" type="passenger">
		<route edges=":29_1 106 103"/>
	</vehicle>
	<vehicle depart="0.1" departLane="0" departPos="9.810362193337802" departSpeed="0.21071317" id="343" type="passenger">
		<route edges="109 106"/>
	</vehicle>
	<vehicle depart="0.1" departLane="0" departPos="56.11524664975191" departSpeed="10.106812" id="345" type="passenger">
		<route edges="85 106 103"/>
	</vehicle>
	<vehicle depart="0.1" departLane="0" departPos="39.967944092272894" departSpeed="9.6007043" id="346" type="passenger">
		<route edges="85 106 103"/>
	</vehicle>
	<vehicle depart="0.1" departLane="0" departPos="24.491355556005853" departSpeed="0.0" id="35" type="motorcycle">
		<route edges="234 104 261"/>
	</vehicle>
	<vehicle depart="0.1" departLane="0" departPos="11.681017160086222" departSpeed="2.3849659" id="328" type="motorcycle">
		<route edges="104 261"/>
	</vehicle>
	<vehicle depart="0.1" departLane="0" departPos="35.902776555454736" departSpeed="0.0014266268" id="331" type="motorcycle">
		<route edges="109 106"/>
	</vehicle>
	<vehicle depart="0.1" departLane="0" departPos="33.38958189826592" departSpeed="0.0" id="30" type="truck">
		<route edges="262 103"/>
	</vehicle>
	<vehicle depart="0.1" departLane="0" departPos="12.585866027045645" departSpeed="0.0" id="326" type="truck">
		<route edges="234 104"/>
	</vehicle>
</routes>
