<!-- generated on Tue Feb  9 22:06:12 2021 by Eclipse SUMO netconvert Version 1.8.0
<configuration xmlns:xsi="http://www.w3.org/2001/XMLSchema-instance" xsi:noNamespaceSchemaLocation="http://sumo.dlr.de/xsd/netconvertConfiguration.xsd">

    <input>
        <node-files value="./converted_scenarios/scenario-factory/HRV_Pula-13_2_I-1-1/HRV_Pula-13_2_I-1-1.nod.xml"/>
        <edge-files value="./converted_scenarios/scenario-factory/HRV_Pula-13_2_I-1-1/HRV_Pula-13_2_I-1-1.edg.xml"/>
        <connection-files value="./converted_scenarios/scenario-factory/HRV_Pula-13_2_I-1-1/HRV_Pula-13_2_I-1-1.con.xml"/>
        <tllogic-files value="./converted_scenarios/scenario-factory/HRV_Pula-13_2_I-1-1/HRV_Pula-13_2_I-1-1.tll.xml"/>
        <type-files value="/home/zen/commonroad-interactive-benchmarks/install/commonroad-map-tool/crmapconverter/sumo_map/templates/DEU.typ.xml"/>
    </input>

    <output>
        <output-file value="./converted_scenarios/scenario-factory/HRV_Pula-13_2_I-1-1/HRV_Pula-13_2_I-1-1.net.xml"/>
    </output>

    <processing>
        <geometry.remove.keep-edges.explicit value="true"/>
        <geometry.avoid-overlap value="true"/>
        <offset.disable-normalization value="true"/>
    </processing>

    <junctions>
        <no-turnarounds value="true"/>
        <junctions.internal-link-detail value="20"/>
    </junctions>

    <report>
        <aggregate-warnings value="5"/>
    </report>

    <random_number>
        <seed value="1234"/>
    </random_number>

</configuration>
--><net xmlns:xsi="http://www.w3.org/2001/XMLSchema-instance" version="1.6" junctionCornerDetail="5" junctionLinkDetail="20" limitTurnSpeed="5.50" xsi:noNamespaceSchemaLocation="http://sumo.dlr.de/xsd/net_file.xsd">

    <location netOffset="0.00,0.00" convBoundary="415.27,122.34,585.51,387.92" origBoundary="414.47,122.34,588.92,389.40" projParameter="!"/>

    <type id="highway.bridleway" priority="1" speed="2.78" allow="pedestrian" oneway="1" width="2.00"/>
    <type id="highway.bus_guideway" priority="1" speed="27.78" allow="bus" oneway="1"/>
    <type id="highway.cycleway" priority="1" speed="8.33" allow="bicycle" oneway="0" width="1.00"/>
    <type id="highway.footway" priority="1" speed="2.78" allow="pedestrian" oneway="1" width="2.00"/>
    <type id="highway.ford" priority="1" speed="2.78" allow="army" oneway="0"/>
    <type id="highway.living_street" priority="2" speed="2.78" disallow="tram rail_urban rail rail_electric rail_fast ship" oneway="0"/>
    <type id="highway.motorway" priority="14" speed="39.44" allow="private emergency authority army vip passenger hov taxi bus coach delivery truck trailer motorcycle evehicle custom1 custom2" oneway="1"/>
    <type id="highway.motorway_link" priority="9" speed="22.22" allow="private emergency authority army vip passenger hov taxi bus coach delivery truck trailer motorcycle evehicle custom1 custom2" oneway="1"/>
    <type id="highway.path" priority="1" speed="2.78" allow="pedestrian bicycle" oneway="0" width="2.00"/>
    <type id="highway.pedestrian" priority="1" speed="2.78" allow="pedestrian" oneway="1" width="2.00"/>
    <type id="highway.primary" priority="12" speed="27.78" disallow="pedestrian tram rail_urban rail rail_electric rail_fast ship" oneway="0"/>
    <type id="highway.primary_link" priority="7" speed="22.22" disallow="pedestrian tram rail_urban rail rail_electric rail_fast ship" oneway="0"/>
    <type id="highway.raceway" priority="15" speed="83.33" allow="vip" oneway="0"/>
    <type id="highway.residential" priority="3" speed="13.89" disallow="pedestrian tram rail_urban rail rail_electric rail_fast ship" oneway="0"/>
    <type id="highway.secondary" priority="11" speed="27.78" disallow="pedestrian tram rail_urban rail rail_electric rail_fast ship" oneway="0"/>
    <type id="highway.secondary_link" priority="6" speed="22.22" disallow="pedestrian tram rail_urban rail rail_electric rail_fast ship" oneway="0"/>
    <type id="highway.service" priority="1" speed="5.56" allow="pedestrian delivery bicycle" oneway="0"/>
    <type id="highway.stairs" priority="1" speed="1.39" allow="pedestrian" oneway="1" width="2.00"/>
    <type id="highway.step" priority="1" speed="1.39" allow="pedestrian" oneway="1" width="2.00"/>
    <type id="highway.steps" priority="1" speed="1.39" allow="pedestrian" oneway="1" width="2.00"/>
    <type id="highway.tertiary" priority="10" speed="22.22" disallow="pedestrian tram rail_urban rail rail_electric rail_fast ship" oneway="0"/>
    <type id="highway.tertiary_link" priority="5" speed="22.22" disallow="pedestrian tram rail_urban rail rail_electric rail_fast ship" oneway="0"/>
    <type id="highway.track" priority="1" speed="5.56" allow="pedestrian motorcycle moped bicycle" oneway="0"/>
    <type id="highway.trunk" priority="13" speed="27.78" disallow="pedestrian bicycle tram rail_urban rail rail_electric rail_fast ship" oneway="0"/>
    <type id="highway.trunk_link" priority="8" speed="22.22" disallow="pedestrian bicycle tram rail_urban rail rail_electric rail_fast ship" oneway="0"/>
    <type id="highway.unclassified" priority="4" speed="13.89" disallow="pedestrian tram rail_urban rail rail_electric rail_fast ship" oneway="0"/>
    <type id="highway.unsurfaced" priority="1" speed="8.33" disallow="tram rail_urban rail rail_electric rail_fast ship" oneway="0"/>
    <type id="railway.highspeed" priority="21" speed="69.44" allow="rail_fast" oneway="1"/>
    <type id="railway.light_rail" priority="19" speed="27.78" allow="rail_urban" oneway="1"/>
    <type id="railway.preserved" priority="16" speed="27.78" allow="rail" oneway="1"/>
    <type id="railway.rail" priority="20" speed="44.44" allow="rail" oneway="1"/>
    <type id="railway.subway" priority="18" speed="27.78" allow="rail_urban" oneway="1"/>
    <type id="railway.tram" priority="17" speed="13.89" allow="tram" oneway="1"/>

    <edge id=":38_0" function="internal">
        <lane id=":38_0_0" index="0" disallow="pedestrian tram rail_urban rail rail_electric rail_fast ship" speed="36.11" length="8.36" width="3.50" shape="502.15,290.87 509.01,287.48 509.64,287.16"/>
        <lane id=":38_0_1" index="1" disallow="pedestrian tram rail_urban rail rail_electric rail_fast ship" speed="36.11" length="8.38" width="3.50" shape="503.69,294.01 510.56,290.62 511.20,290.30"/>
    </edge>
    <edge id=":38_2" function="internal">
        <lane id=":38_2_0" index="0" disallow="pedestrian tram rail_urban rail rail_electric rail_fast ship" speed="3.61" length="1.87" width="3.50" shape="504.74,296.16 505.89,296.40 506.54,296.64"/>
    </edge>
    <edge id=":39_0" function="internal">
        <lane id=":39_0_0" index="0" disallow="pedestrian tram rail_urban rail rail_electric rail_fast ship" speed="36.11" length="14.23" width="3.50" shape="544.34,336.71 534.39,342.40 532.03,343.84"/>
    </edge>
    <edge id=":39_1" function="internal">
        <lane id=":39_1_0" index="0" disallow="pedestrian tram rail_urban rail rail_electric rail_fast ship" speed="4.44" length="3.45" width="3.50" shape="531.01,337.63 530.99,338.08 530.66,339.79 530.26,340.98"/>
    </edge>
    <edge id=":40_0" function="internal">
        <lane id=":40_0_0" index="0" disallow="pedestrian tram rail_urban rail rail_electric rail_fast ship" speed="5.52" length="7.55" width="3.50" shape="559.52,256.75 560.04,258.93 560.53,260.00 560.89,260.47 561.38,260.80 561.95,260.89 562.52,260.74 564.04,259.80"/>
    </edge>
    <edge id=":40_1" function="internal">
        <lane id=":40_1_0" index="0" disallow="pedestrian tram rail_urban rail rail_electric rail_fast ship" speed="36.11" length="6.12" width="3.50" shape="558.68,262.74 561.28,261.43 564.04,259.80"/>
    </edge>
    <edge id=":40_2" function="internal">
        <lane id=":40_2_0" index="0" disallow="pedestrian tram rail_urban rail rail_electric rail_fast ship" speed="36.11" length="7.25" width="3.50" shape="560.24,265.87 563.06,264.45 566.57,262.34"/>
    </edge>
    <edge id=":41_0" function="internal">
        <lane id=":41_0_0" index="0" disallow="pedestrian tram rail_urban rail rail_electric rail_fast ship" speed="11.22" length="28.88" width="3.50" shape="487.11,227.06 486.74,225.99 485.88,223.86 484.84,221.86 483.61,220.01 482.15,218.35 481.37,217.65 480.52,217.00 479.63,216.43 478.68,215.93 477.70,215.52 476.71,215.20 474.54,214.76 472.34,214.64 470.09,214.76 467.85,215.10 464.48,215.94"/>
    </edge>
    <edge id=":41_1" function="internal">
        <lane id=":41_1_0" index="0" disallow="pedestrian tram rail_urban rail rail_electric rail_fast ship" speed="36.11" length="1.83" width="3.50" shape="487.11,227.06 486.55,225.32"/>
    </edge>
    <edge id=":41_2" function="internal">
        <lane id=":41_2_0" index="0" disallow="pedestrian tram rail_urban rail rail_electric rail_fast ship" speed="36.11" length="1.06" width="3.50" shape="487.09,227.00 486.82,225.98"/>
    </edge>
    <edge id=":41_3" function="internal">
        <lane id=":41_3_0" index="0" disallow="pedestrian tram rail_urban rail rail_electric rail_fast ship" speed="36.11" length="38.37" width="3.50" shape="478.78,189.45 484.61,207.71 490.44,226.01"/>
    </edge>
    <edge id=":41_4" function="internal">
        <lane id=":41_4_0" index="0" disallow="pedestrian tram rail_urban rail rail_electric rail_fast ship" speed="12.20" length="34.41" width="3.50" shape="463.47,212.59 467.32,211.63 469.94,211.24 472.58,211.10 475.22,211.26 477.81,211.78 479.07,212.20 480.29,212.71 481.46,213.33 482.57,214.05 483.62,214.85 484.60,215.74 486.34,217.73 487.80,219.94 489.01,222.29 490.01,224.74 490.44,226.01"/>
    </edge>
    <edge id=":43_0" function="internal">
        <lane id=":43_0_0" index="0" disallow="pedestrian tram rail_urban rail rail_electric rail_fast ship" speed="10.46" length="9.33" width="3.50" shape="461.83,310.75 462.62,309.92 464.17,307.29 466.43,302.68"/>
    </edge>
    <edge id=":43_1" function="internal">
        <lane id=":43_1_0" index="0" disallow="pedestrian tram rail_urban rail rail_electric rail_fast ship" speed="36.11" length="9.93" width="3.50" shape="461.81,310.73 470.72,306.34"/>
        <lane id=":43_1_1" index="1" disallow="pedestrian tram rail_urban rail rail_electric rail_fast ship" speed="36.11" length="8.52" width="3.50" shape="464.57,313.15 472.24,309.44"/>
    </edge>
    <edge id=":44_0" function="internal">
        <lane id=":44_0_0" index="0" disallow="pedestrian tram rail_urban rail rail_electric rail_fast ship" speed="10.05" length="19.60" width="3.50" shape="441.92,320.97 447.46,317.94 449.76,316.29 451.85,314.40 453.33,312.69 454.57,310.79 455.52,308.74 455.75,307.92"/>
    </edge>
    <edge id=":44_1" function="internal">
        <lane id=":44_1_0" index="0" disallow="pedestrian tram rail_urban rail rail_electric rail_fast ship" speed="36.11" length="23.52" width="3.46" shape="441.92,320.97 453.11,315.20 462.85,310.25"/>
        <lane id=":44_1_1" index="1" disallow="pedestrian tram rail_urban rail rail_electric rail_fast ship" speed="36.11" length="23.51" width="3.50" shape="443.53,324.08 454.71,318.31 464.40,313.25"/>
    </edge>
    <edge id=":45_0" function="internal">
        <lane id=":45_0_0" index="0" disallow="pedestrian tram rail_urban rail rail_electric rail_fast ship" speed="36.11" length="0.40" width="3.50" shape="564.20,259.69 564.54,259.47"/>
        <lane id=":45_0_1" index="1" disallow="pedestrian tram rail_urban rail rail_electric rail_fast ship" speed="36.11" length="0.30" width="3.50" shape="566.73,262.23 566.48,262.39"/>
    </edge>
    <edge id=":45_2" function="internal">
        <lane id=":45_2_0" index="0" disallow="pedestrian tram rail_urban rail rail_electric rail_fast ship" speed="36.11" length="0.31" width="3.50" shape="566.73,262.23 566.53,262.47"/>
    </edge>
    <edge id=":47_0" function="internal">
        <lane id=":47_0_0" index="0" disallow="pedestrian tram rail_urban rail rail_electric rail_fast ship" speed="36.11" length="2.94" width="3.50" shape="486.25,372.03 483.79,373.64"/>
    </edge>
    <edge id=":47_1" function="internal">
        <lane id=":47_1_0" index="0" disallow="pedestrian tram rail_urban rail rail_electric rail_fast ship" speed="36.11" length="2.94" width="3.50" shape="486.25,372.03 483.75,373.58"/>
    </edge>

    <edge id="12132" from="41" to="29" priority="3" type="highway.residential" spreadType="center" length="99.21" shape="474.92,210.66 455.53,123.34">
        <lane id="12132_0" index="0" disallow="pedestrian tram rail_urban rail rail_electric rail_fast ship" speed="36.11" length="99.21" width="3.50" customShape="1" shape="483.73,218.46 456.50,126.61 455.53,123.34"/>
    </edge>
    <edge id="12133" from="37" to="41" priority="3" type="highway.residential" spreadType="center" length="70.00" shape="458.89,122.34 478.33,209.90">
        <lane id="12133_0" index="0" disallow="pedestrian tram rail_urban rail rail_electric rail_fast ship" speed="36.11" length="70.00" width="3.50" customShape="1" shape="458.89,122.34 459.86,125.61 478.78,189.45"/>
    </edge>
    <edge id="12135" from="43" to="41" priority="3" type="highway.residential" spreadType="center" length="80.76" shape="479.00,294.22 474.87,210.30">
        <lane id="12135_0" index="0" disallow="pedestrian tram rail_urban rail rail_electric rail_fast ship" speed="36.11" length="80.76" width="3.50" customShape="1" shape="467.13,302.96 483.21,263.71 487.84,251.64 489.19,247.90 489.80,245.49 490.29,242.55 490.36,240.06 490.11,238.09 488.95,233.26 487.09,227.00"/>
    </edge>
    <edge id="12136" from="41" to="12" priority="3" type="highway.residential" spreadType="center" length="52.16" shape="478.36,210.10 482.10,275.63">
        <lane id="12136_0" index="0" disallow="pedestrian tram rail_urban rail rail_electric rail_fast ship" speed="36.11" length="52.16" width="3.50" customShape="1" shape="490.44,226.01 492.35,232.43 493.56,237.52 493.85,239.75 493.80,242.55 493.31,245.75 492.69,248.39 491.31,252.36 486.55,264.76 482.10,275.63"/>
    </edge>
    <edge id="12327" from="35" to="40" priority="3" type="highway.residential" spreadType="center" length="50.35">
        <lane id="12327_0" index="0" disallow="pedestrian tram rail_urban rail rail_electric rail_fast ship" speed="36.11" length="50.35" width="3.50" customShape="1" shape="546.73,208.03 552.38,227.36 560.85,256.36"/>
    </edge>
    <edge id="12746" from="43" to="38" priority="3" type="highway.residential" spreadType="center" length="35.03">
        <lane id="12746_0" index="0" disallow="pedestrian tram rail_urban rail rail_electric rail_fast ship" speed="36.11" length="35.04" width="3.50" customShape="1" shape="470.70,306.31 494.74,294.53 502.17,290.91"/>
        <lane id="12746_1" index="1" disallow="pedestrian tram rail_urban rail rail_electric rail_fast ship" speed="36.11" length="35.03" width="3.50" customShape="1" shape="472.24,309.45 496.28,297.67 503.69,294.02"/>
    </edge>
    <edge id="12749" from="38" to="40" priority="3" type="highway.residential" spreadType="center" length="54.78">
        <lane id="12749_0" index="0" disallow="pedestrian tram rail_urban rail rail_electric rail_fast ship" speed="36.11" length="54.78" width="3.50" customShape="1" shape="509.66,287.20 535.04,274.58 558.71,262.81"/>
        <lane id="12749_1" index="1" disallow="pedestrian tram rail_urban rail rail_electric rail_fast ship" speed="36.11" length="54.78" width="3.50" customShape="1" shape="511.22,290.33 536.60,277.71 560.27,265.94"/>
    </edge>
    <edge id="12933" from="40" to="45" priority="3" type="highway.residential" spreadType="center" length="0.19">
        <lane id="12933_0" index="0" disallow="pedestrian tram rail_urban rail rail_electric rail_fast ship" speed="36.11" length="0.19" width="3.50" customShape="1" shape="564.04,259.80 564.20,259.69"/>
        <lane id="12933_1" index="1" disallow="pedestrian tram rail_urban rail rail_electric rail_fast ship" speed="36.11" length="0.19" width="3.50" customShape="1" shape="566.57,262.34 566.73,262.23"/>
    </edge>
    <edge id="13018" from="44" to="20" priority="3" type="highway.residential" spreadType="center" length="69.04">
        <lane id="13018_0" index="0" disallow="pedestrian tram rail_urban rail rail_electric rail_fast ship" speed="36.11" length="69.04" width="3.50" customShape="1" shape="458.36,307.14 447.15,269.29 438.76,240.94"/>
    </edge>
    <edge id="13221" from="38" to="39" priority="3" type="highway.residential" spreadType="center" length="47.73">
        <lane id="13221_0" index="0" disallow="pedestrian tram rail_urban rail rail_electric rail_fast ship" speed="36.11" length="47.73" width="3.50" customShape="1" shape="509.87,294.74 522.26,316.44 533.53,336.19"/>
    </edge>
    <edge id="13356" from="22" to="44" priority="3" type="highway.residential" spreadType="center" length="30.89">
        <lane id="13356_0" index="0" disallow="pedestrian tram rail_urban rail rail_electric rail_fast ship" speed="36.11" length="30.89" width="3.50" customShape="1" shape="414.47,335.14 429.49,327.38 441.92,320.97"/>
        <lane id="13356_1" index="1" disallow="pedestrian tram rail_urban rail rail_electric rail_fast ship" speed="36.11" length="30.91" width="3.50" customShape="1" shape="416.06,338.25 431.09,330.49 443.53,324.08"/>
    </edge>
    <edge id="13359" from="44" to="43" priority="3" type="highway.residential" spreadType="center" length="0.20">
        <lane id="13359_0" index="0" disallow="pedestrian tram rail_urban rail rail_electric rail_fast ship" speed="36.11" length="0.21" width="3.46" customShape="1" shape="462.85,310.25 463.04,310.16"/>
        <lane id="13359_1" index="1" disallow="pedestrian tram rail_urban rail rail_electric rail_fast ship" speed="36.11" length="0.20" width="3.50" customShape="1" shape="464.40,313.25 464.57,313.15"/>
    </edge>
    <edge id="13436" from="39" to="47" priority="3" type="highway.residential" spreadType="center" length="53.76">
        <lane id="13436_0" index="0" disallow="pedestrian tram rail_urban rail rail_electric rail_fast ship" speed="36.11" length="53.76" width="3.50" customShape="1" shape="531.97,343.75 503.63,361.28 486.25,372.03"/>
    </edge>
    <edge id="13471" from="41" to="28" priority="3" type="highway.residential" spreadType="center" length="13.75" shape="477.24,211.88 451.31,219.90">
        <lane id="13471_0" index="0" disallow="pedestrian tram rail_urban rail rail_electric rail_fast ship" speed="36.11" length="13.75" width="3.50" customShape="1" shape="464.48,215.94 457.89,217.92 451.31,219.90"/>
    </edge>
    <edge id="13472" from="36" to="41" priority="3" type="highway.residential" spreadType="center" length="13.75" shape="450.30,216.55 476.21,208.55">
        <lane id="13472_0" index="0" disallow="pedestrian tram rail_urban rail rail_electric rail_fast ship" speed="36.11" length="13.75" width="3.50" customShape="1" shape="450.30,216.55 456.89,214.57 463.47,212.59"/>
    </edge>
    <edge id="13512" from="27" to="39" priority="3" type="highway.residential" spreadType="center" length="61.34">
        <lane id="13512_0" index="0" disallow="pedestrian tram rail_urban rail rail_electric rail_fast ship" speed="36.11" length="61.34" width="3.50" customShape="1" shape="585.30,295.44 582.67,305.30 581.50,308.67 580.20,311.43 578.86,313.60 576.96,316.00 574.14,318.95 571.07,321.63 567.37,324.35 563.05,327.05 557.20,330.19 544.26,336.55"/>
    </edge>
    <edge id="15846" from="45" to="46" priority="3" type="highway.residential" spreadType="center" length="16.64">
        <lane id="15846_0" index="0" disallow="pedestrian tram rail_urban rail rail_electric rail_fast ship" speed="36.11" length="16.64" width="3.50" customShape="1" shape="566.53,262.47 567.62,261.84 569.68,260.95 571.85,260.35 573.53,260.14 575.22,260.16 576.88,260.45 578.49,260.97 580.48,262.02 581.99,263.14"/>
    </edge>
    <edge id="15847" from="45" to="46" priority="3" type="highway.residential" spreadType="center" length="25.46">
        <lane id="15847_0" index="0" disallow="pedestrian tram rail_urban rail rail_electric rail_fast ship" speed="36.11" length="25.46" width="3.50" customShape="1" shape="564.54,259.47 580.82,248.61 585.67,245.26"/>
        <lane id="15847_1" index="1" disallow="pedestrian tram rail_urban rail rail_electric rail_fast ship" speed="36.11" length="25.56" width="3.50" customShape="1" shape="566.48,262.39 582.82,251.49 587.68,248.12"/>
    </edge>
    <edge id="17274" from="41" to="42" priority="3" type="highway.residential" spreadType="center" length="30.06">
        <lane id="17274_0" index="0" disallow="pedestrian tram rail_urban rail rail_electric rail_fast ship" speed="36.11" length="30.06" width="3.50" customShape="1" shape="486.82,225.98 486.21,223.65 485.80,220.73 485.77,218.38 486.06,216.05 486.71,213.79 487.45,212.18 488.39,210.69 489.93,208.91 491.71,207.38 494.19,205.79 496.84,204.52 500.17,203.34"/>
    </edge>
    <edge id="19253" from="47" to="48" priority="3" type="highway.residential" spreadType="center" length="24.29">
        <lane id="19253_0" index="0" disallow="pedestrian tram rail_urban rail rail_electric rail_fast ship" speed="36.11" length="24.29" width="3.50" customShape="1" shape="483.75,373.58 474.07,379.62 463.14,386.44"/>
    </edge>
    <edge id="19257" from="47" to="48" priority="3" type="highway.residential" spreadType="center" length="24.55">
        <lane id="19257_0" index="0" disallow="pedestrian tram rail_urban rail rail_electric rail_fast ship" speed="36.11" length="24.55" width="3.50" customShape="1" shape="483.79,373.64 482.05,374.83 478.52,377.77 470.31,385.42 467.12,387.97 465.02,389.40"/>
    </edge>

    <junction id="12" type="dead_end" x="482.10" y="275.63" incLanes="12136_0" intLanes="" shape="483.72,276.30 480.48,274.97" rightOfWay="edgePriority"/>
    <junction id="20" type="dead_end" x="438.76" y="240.94" incLanes="13018_0" intLanes="" shape="437.08,241.44 440.44,240.45" rightOfWay="edgePriority"/>
    <junction id="22" type="dead_end" x="415.27" y="336.69" incLanes="" intLanes="" shape="416.87,339.80 413.66,333.58" rightOfWay="edgePriority"/>
    <junction id="27" type="dead_end" x="585.30" y="295.44" incLanes="" intLanes="" shape="583.61,294.99 586.99,295.89" rightOfWay="edgePriority"/>
    <junction id="28" type="dead_end" x="451.31" y="219.90" incLanes="13471_0" intLanes="" shape="451.81,221.58 450.80,218.22" rightOfWay="edgePriority"/>
    <junction id="29" type="dead_end" x="455.53" y="123.34" incLanes="12132_0" intLanes="" shape="453.85,123.83 457.21,122.84" rightOfWay="edgePriority"/>
    <junction id="35" type="dead_end" x="546.73" y="208.03" incLanes="" intLanes="" shape="545.05,208.52 548.41,207.54" rightOfWay="edgePriority"/>
    <junction id="36" type="dead_end" x="450.30" y="216.55" incLanes="" intLanes="" shape="450.80,218.22 449.80,214.87" rightOfWay="edgePriority"/>
    <junction id="37" type="dead_end" x="458.89" y="122.34" incLanes="" intLanes="" shape="457.21,122.84 460.56,121.84" rightOfWay="edgePriority"/>
    <junction id="38" type="priority" x="512.04" y="294.84" incLanes="12746_0 12746_1" intLanes=":38_0_0 :38_0_1 :38_2_0" shape="508.36,295.60 511.39,293.87 511.13,293.07 511.17,292.72 511.33,292.41 511.60,292.14 511.99,291.90 508.88,285.63 501.41,289.33 504.46,295.59 506.24,294.93 506.95,294.85 507.54,294.93 508.01,295.18">
        <request index="0" response="000" foes="000" cont="0"/>
        <request index="1" response="000" foes="000" cont="0"/>
        <request index="2" response="000" foes="000" cont="0"/>
    </junction>
    <junction id="39" type="priority" x="533.83" y="336.45" incLanes="13512_0 13221_0" intLanes=":39_0_0 :39_1_0" shape="545.03,338.12 543.49,334.98 541.38,335.91 539.55,336.49 538.01,336.72 536.74,336.60 535.75,336.14 535.05,335.32 532.01,337.06 532.77,339.15 532.74,340.06 532.45,340.88 531.88,341.62 531.05,342.26 532.89,345.23 535.43,343.64 537.29,342.43 538.84,341.45 540.41,340.52 542.35,339.46">
        <request index="0" response="00" foes="10" cont="0"/>
        <request index="1" response="01" foes="01" cont="0"/>
    </junction>
    <junction id="40" type="priority" x="556.59" y="259.61" incLanes="12327_0 12749_0 12749_1" intLanes=":40_0_0 :40_1_0 :40_2_0" shape="569.07,262.78 565.26,256.86 562.53,255.87 559.18,256.85 559.47,258.81 559.35,259.60 559.05,260.27 558.58,260.82 557.93,261.24 561.05,267.51">
        <request index="0" response="110" foes="110" cont="0"/>
        <request index="1" response="000" foes="001" cont="0"/>
        <request index="2" response="000" foes="001" cont="0"/>
    </junction>
    <junction id="41" type="priority" x="476.62" y="210.25" incLanes="12135_0 12133_0 13472_0" intLanes=":41_0_0 :41_1_0 :41_2_0 :41_3_0 :41_4_0" shape="485.41,227.50 492.12,225.51 491.86,238.24 477.17,202.47 476.10,205.11 474.19,206.50 471.36,207.93 467.62,209.40 462.97,210.91 464.98,217.62 470.01,216.55 474.39,216.57 478.12,217.67 481.20,219.86 483.63,223.13">
        <request index="0" response="00000" foes="00000" cont="0"/>
        <request index="1" response="00000" foes="10000" cont="0"/>
        <request index="2" response="01000" foes="11000" cont="0"/>
        <request index="3" response="00000" foes="10100" cont="0"/>
        <request index="4" response="01110" foes="01110" cont="0"/>
    </junction>
    <junction id="42" type="dead_end" x="500.17" y="203.34" incLanes="17274_0" intLanes="" shape="499.58,201.69 500.76,204.99"/>
    <junction id="43" type="priority" x="479.00" y="294.22" incLanes="13359_0 13359_1" intLanes=":43_0_0 :43_1_0 :43_1_1" shape="473.01,311.02 469.93,304.73 468.89,305.06 468.61,304.96 468.50,304.69 468.54,304.24 468.75,303.63 465.51,302.30 461.00,309.19 464.27,315.36">
        <request index="0" response="000" foes="000" cont="0"/>
        <request index="1" response="000" foes="000" cont="0"/>
        <request index="2" response="000" foes="000" cont="0"/>
    </junction>
    <junction id="44" type="priority" x="454.45" y="310.38" incLanes="13356_0 13356_1" intLanes=":44_0_0 :44_1_0 :44_1_1" shape="466.31,314.18 463.31,308.14 460.04,306.65 456.68,307.64 455.38,310.39 453.27,312.21 450.19,314.32 446.14,316.72 441.11,319.42 444.33,325.63">
        <request index="0" response="000" foes="000" cont="0"/>
        <request index="1" response="000" foes="000" cont="0"/>
        <request index="2" response="000" foes="000" cont="0"/>
    </junction>
    <junction id="45" type="priority" x="564.22" y="261.79" incLanes="12933_0 12933_1" intLanes=":45_0_0 :45_0_1 :45_2_0" shape="567.50,263.93 563.57,258.02 561.07,259.70 564.91,265.52">
        <request index="0" response="000" foes="000" cont="0"/>
        <request index="1" response="000" foes="000" cont="0"/>
        <request index="2" response="000" foes="000" cont="0"/>
    </junction>
    <junction id="46" type="dead_end" x="585.51" y="254.98" incLanes="15847_0 15847_1 15846_0" intLanes="" shape="584.66,243.82 588.69,249.55 583.17,261.85 580.80,264.44"/>
    <junction id="47" type="priority" x="484.99" y="372.81" incLanes="13436_0" intLanes=":47_0_0 :47_1_0" shape="487.17,373.52 485.32,370.55 482.76,372.14 484.78,375.08">
        <request index="0" response="00" foes="00" cont="0"/>
        <request index="1" response="00" foes="00" cont="0"/>
    </junction>
    <junction id="48" type="dead_end" x="464.08" y="387.92" incLanes="19257_0 19253_0" intLanes="" shape="466.05,390.81 464.08,387.92 462.23,384.95"/>

    <connection from="12133" to="12136" fromLane="0" toLane="0" contPos="-4.00" shape="478.78,189.45 484.61,207.71 490.44,226.01" via=":41_3_0" dir="s" state="M"/>
    <connection from="12135" to="13471" fromLane="0" toLane="0" contPos="-4.00" shape="487.11,227.06 486.74,225.99 485.88,223.86 484.84,221.86 483.61,220.01 482.15,218.35 481.37,217.65 480.52,217.00 479.63,216.43 478.68,215.93 477.70,215.52 476.71,215.20 474.54,214.76 472.34,214.64 470.09,214.76 467.85,215.10 464.48,215.94" via=":41_0_0" dir="r" state="M"/>
    <connection from="12135" to="12132" fromLane="0" toLane="0" contPos="-4.00" shape="487.11,227.06 481.27,208.76 475.43,190.45" via=":41_1_0" dir="s" state="M"/>
    <connection from="12135" to="17274" fromLane="0" toLane="0" contPos="-4.00" via=":41_2_0" dir="l" state="m"/>
    <connection from="12327" to="12933" fromLane="0" toLane="0" contPos="-4.00" shape="558.03,246.68 558.51,249.00 559.49,256.63 560.04,258.93 560.53,260.00 560.89,260.47 561.38,260.80 561.95,260.89 562.52,260.74 563.11,260.43" via=":40_0_0" dir="r" state="m"/>
    <connection from="12746" to="12749" fromLane="0" toLane="0" contPos="-4.00" shape="494.86,294.47 509.01,287.48 523.16,280.49" via=":38_0_0" dir="s" state="M"/>
    <connection from="12746" to="12749" fromLane="1" toLane="1" contPos="-4.00" shape="496.39,297.62 510.56,290.62 524.71,283.62" via=":38_0_1" dir="s" state="M"/>
    <connection from="12746" to="13221" fromLane="1" toLane="0" contPos="-4.00" shape="496.39,297.62 498.52,296.73 500.75,296.15 502.47,295.98 504.20,296.06 505.89,296.40 507.51,297.00 509.03,297.82 510.88,299.19 512.92,301.23 514.70,303.50 516.54,306.42" via=":38_2_0" dir="l" state="M"/>
    <connection from="12749" to="12933" fromLane="0" toLane="0" contPos="-4.00" shape="546.92,268.67 561.28,261.43 563.11,260.43" via=":40_1_0" dir="l" state="M"/>
    <connection from="12749" to="12933" fromLane="1" toLane="1" contPos="-4.00" shape="548.48,271.80 563.06,264.45 564.96,263.40" via=":40_2_0" dir="l" state="M"/>
    <connection from="12933" to="15847" fromLane="0" toLane="0" contPos="-4.00" via=":45_0_0" dir="s" state="M"/>
    <connection from="12933" to="15847" fromLane="1" toLane="1" contPos="-4.00" via=":45_0_1" dir="s" state="M"/>
    <connection from="12933" to="15846" fromLane="1" toLane="0" contPos="-4.00" via=":45_2_0" dir="s" state="M"/>
    <connection from="13221" to="13436" fromLane="0" toLane="0" contPos="-4.00" shape="527.98,326.47 529.30,329.05 530.33,331.77 530.87,334.03 531.08,336.34 530.99,338.08 530.66,339.79 530.10,341.44 529.32,343.00 528.00,344.90 526.42,346.60 524.18,348.46 522.26,349.76" via=":39_1_0" dir="l" state="m"/>