<routes>
	<vehicle depart="0.1" departLane="0" departPos="24.421956587288317" departSpeed="0.33320424" id="340" type="bus">
		<route edges=":41_3 12136"/>
	</vehicle>
	<vehicle depart="0.1" departLane="0" departPos="2.5" departSpeed="2.28816" id="334" type="passenger">
		<route edges="13472 12136"/>
	</vehicle>
	<vehicle depart="0.1" departLane="0" departPos="64.94280171357835" departSpeed="0.66410854" id="341" type="passenger">
		<route edges="12133 12136"/>
	</vehicle>
</routes>
