<routes>
	<vehicle depart="0.1" departLane="0" departPos="37.20379985436894" departSpeed="7.7256053" id="1" type="passenger">
		<route edges="50201 50213 50197"/>
	</vehicle>
	<vehicle depart="0.1" departLane="0" departPos="99.81983072327486" departSpeed="1.7472713" id="2" type="passenger">
		<route edges="50195 50211 50199"/>
	</vehicle>
	<vehicle depart="0.1" departLane="0" departPos="120.40341336073791" departSpeed="3.2169798" id="4" type="passenger">
		<route edges="50205 50207 50197"/>
	</vehicle>
	<vehicle depart="0.1" departLane="0" departPos="128.40478484277074" departSpeed="5.8445114" id="5" type="passenger">
		<route edges="50205 50217 50199"/>
	</vehicle>
	<vehicle depart="0.1" departLane="0" departPos="29.20232802791112" departSpeed="2.0490445" id="7" type="passenger">
		<route edges="50201 50213 50197"/>
	</vehicle>
</routes>
