<routes>
	<vehicle depart="0.1" departLane="0" departPos="0" departSpeed="0.0" id="1664" type="passenger">
		<route edges="3664 3495"/>
	</vehicle>
	<vehicle depart="0.1" departLane="4" departPos="20.33302674641494" departSpeed="0.0" id="1680" type="passenger">
		<route edges="3450 3664 3495"/>
	</vehicle>
	<vehicle depart="0.1" departLane="4" departPos="13.993224239779376" departSpeed="0.0" id="1687" type="passenger">
		<route edges="3450 3664 3495"/>
	</vehicle>
	<vehicle depart="0.1" departLane="1" departPos="0" departSpeed="0.0" id="1690" type="passenger">
		<route edges="3664 3495"/>
	</vehicle>
	<vehicle depart="0.1" departLane="0" departPos="0" departSpeed="0.0" id="1700" type="passenger">
		<route edges="3670 3640 3487"/>
	</vehicle>
	<vehicle depart="0.1" departLane="4" departPos="0" departSpeed="0.0" id="1703" type="passenger">
		<route edges="3450 3664 3495"/>
	</vehicle>
	<vehicle depart="0.1" departLane="5" departPos="19.385970611083128" departSpeed="0.0" id="1705" type="passenger">
		<route edges="3450 3664 3495"/>
	</vehicle>
	<vehicle depart="0.1" departLane="4" departPos="0" departSpeed="0.0" id="1708" type="passenger">
		<route edges="3450 3664 3495"/>
	</vehicle>
	<vehicle depart="0.1" departLane="5" departPos="0" departSpeed="0.01524" id="1711" type="passenger">
		<route edges="3450 3664 3495"/>
	</vehicle>
	<vehicle depart="0.1" departLane="4" departPos="0" departSpeed="0.0" id="1714" type="passenger">
		<route edges="3438 3450 3664 3495"/>
	</vehicle>
	<vehicle depart="0.1" departLane="0" departPos="0" departSpeed="12.0213" id="1737" type="passenger">
		<route edges="3462 3470"/>
	</vehicle>
	<vehicle depart="0.1" departLane="3" departPos="22.23557892748387" departSpeed="0.0" id="1742" type="passenger">
		<route edges="3450 3610 3646 3626 3542"/>
	</vehicle>
	<vehicle depart="0.1" departLane="3" departPos="0" departSpeed="0.0" id="1745" type="passenger">
		<route edges="3450 3610 3646 3626 3542"/>
	</vehicle>
	<vehicle depart="0.1" departLane="3" departPos="0" departSpeed="0.0" id="1748" type="passenger">
		<route edges="3450 3610 3646 3626 3542"/>
	</vehicle>
	<vehicle depart="0.1" departLane="0" departPos="13.68305492414908" departSpeed="9.5037" id="1750" type="passenger">
		<route edges="3456 3462 3470"/>
	</vehicle>
	<vehicle depart="0.1" departLane="5" departPos="0" departSpeed="0.0" id="1755" type="passenger">
		<route edges="3450 3664 3495"/>
	</vehicle>
	<vehicle depart="0.1" departLane="1" departPos="0" departSpeed="0.0" id="1757" type="passenger">
		<route edges="3610 3646 3626 3542"/>
	</vehicle>
	<vehicle depart="0.1" departLane="3" departPos="0" departSpeed="0.01524" id="1758" type="passenger">
		<route edges="3438 3450 3610 3646 3626 3542"/>
	</vehicle>
	<vehicle depart="0.1" departLane="2" departPos="4.237796100357186" departSpeed="0.43891" id="1761" type="passenger">
		<route edges="3431 3438 3450 3610 3646 3626 3542"/>
	</vehicle>
	<vehicle depart="0.1" departLane="2" departPos="0" departSpeed="0.0" id="1769" type="passenger">
		<route edges="3632 3652 3616 3456 3462 3470"/>
	</vehicle>
	<vehicle depart="0.1" departLane="1" departPos="0" departSpeed="4.572" id="1773" type="passenger">
		<route edges="3450 3610 3646 3626 3542"/>
	</vehicle>
	<vehicle depart="0.1" departLane="1" departPos="41.56189728917716" departSpeed="0.027432" id="1775" type="passenger">
		<route edges="3573 3680 3495"/>
	</vehicle>
	<vehicle depart="0.1" departLane="2" departPos="41.65840591059532" departSpeed="0.50902" id="1776" type="passenger">
		<route edges="3573 3632 3652 3616 3456 3462 3470"/>
	</vehicle>
	<vehicle depart="0.1" departLane="1" departPos="31.424409356712808" departSpeed="0.051816" id="1777" type="passenger">
		<route edges="3573 3680 3495"/>
	</vehicle>
	<vehicle depart="0.1" departLane="1" departPos="0" departSpeed="10.5186" id="1778" type="passenger">
		<route edges="3438 3438 3450 3604 3487"/>
	</vehicle>
	<vehicle depart="0.1" departLane="1" departPos="24.188684417270835" departSpeed="0.0" id="1780" type="passenger">
		<route edges="3573 3680 3495"/>
	</vehicle>
	<vehicle depart="0.1" departLane="2" departPos="30.666630354675988" departSpeed="0.0" id="1781" type="passenger">
		<route edges="3573 3632 3652 3616 3456 3462 3470"/>
	</vehicle>
	<vehicle depart="0.1" departLane="2" departPos="23.375073243115192" departSpeed="0.0" id="1782" type="passenger">
		<route edges="3573 3632 3652 3616 3456 3462 3470"/>
	</vehicle>
	<vehicle depart="0.1" departLane="1" departPos="15.686256287310055" departSpeed="0.01524" id="1783" type="passenger">
		<route edges="3573 3680 3495"/>
	</vehicle>
	<vehicle depart="0.1" departLane="2" departPos="13.999048869485406" departSpeed="0.0" id="1788" type="passenger">
		<route edges="3573 3632 3652 3616 3456 3462 3470"/>
	</vehicle>
	<vehicle depart="0.1" departLane="2" departPos="0" departSpeed="0.13106" id="1789" type="passenger">
		<route edges="3573 3632 3652 3616 3456 3462 3470"/>
	</vehicle>
	<vehicle depart="0.1" departLane="3" departPos="41.74398239742748" departSpeed="0.0" id="1790" type="passenger">
		<route edges="3573 3632 3652 3616 3456 3462 3470"/>
	</vehicle>
	<vehicle depart="0.1" departLane="1" departPos="0" departSpeed="2.5725" id="1791" type="passenger">
		<route edges="3573 3680 3495"/>
	</vehicle>
	<vehicle depart="0.1" departLane="0" departPos="0" departSpeed="0.0" id="1794" type="passenger">
		<route edges="3620 3662 3640 3487"/>
	</vehicle>
	<vehicle depart="0.1" departLane="0" departPos="0" departSpeed="2.1245" id="1803" type="passenger">
		<route edges="3602 3456 3462 3470"/>
	</vehicle>
</routes>
