<routes>
	<vehicle depart="0.1" departLane="0" departPos="27.922188444119303" departSpeed="6.9239731" id="374" type="bicycle">
		<route edges="146 143"/>
	</vehicle>
	<vehicle depart="0.1" departLane="0" departPos="15.869975595508295" departSpeed="6.919085" id="384" type="bicycle">
		<route edges="345 140"/>
	</vehicle>
	<vehicle depart="0.1" departLane="0" departPos="50.95317028936908" departSpeed="7.35627" id="393" type="bus">
		<route edges="26 141 144 147 330"/>
	</vehicle>
	<vehicle depart="0.1" departLane="0" departPos="32.0360847353419" departSpeed="5.9351319" id="396" type="bus">
		<route edges="329 146 143"/>
	</vehicle>
	<vehicle depart="0.1" departLane="0" departPos="32.69821930123163" departSpeed="0.0" id="38" type="passenger">
		<route edges="965 341"/>
	</vehicle>
	<vehicle depart="0.1" departLane="0" departPos="57.026910497874" departSpeed="0.0" id="310" type="passenger">
		<route edges="280 146"/>
	</vehicle>
	<vehicle depart="0.1" departLane="0" departPos="50.11094798498891" departSpeed="0.0" id="313" type="passenger">
		<route edges="280 146"/>
	</vehicle>
	<vehicle depart="0.1" departLane="0" departPos="71.15553905310504" departSpeed="0.0" id="316" type="passenger">
		<route edges="280 146"/>
	</vehicle>
	<vehicle depart="0.1" departLane="0" departPos="64.13835534457706" departSpeed="0.0" id="319" type="passenger">
		<route edges="280 146"/>
	</vehicle>
	<vehicle depart="0.1" departLane="0" departPos="43.28410148391129" departSpeed="0.0" id="326" type="passenger">
		<route edges="280 146"/>
	</vehicle>
	<vehicle depart="0.1" departLane="0" departPos="36.49989056764173" departSpeed="0.0" id="334" type="passenger">
		<route edges="280 146"/>
	</vehicle>
	<vehicle depart="0.1" departLane="0" departPos="149.32107522023463" departSpeed="0.02309689" id="346" type="passenger">
		<route edges="345 140"/>
	</vehicle>
	<vehicle depart="0.1" departLane="0" departPos="160.61703530865367" departSpeed="0.0052109935" id="350" type="passenger">
		<route edges="146 143"/>
	</vehicle>
	<vehicle depart="0.1" departLane="0" departPos="153.66172835372902" departSpeed="0.026343569" id="351" type="passenger">
		<route edges="146 143"/>
	</vehicle>
	<vehicle depart="0.1" departLane="0" departPos="11.938472979547639" departSpeed="0.012310851" id="352" type="passenger">
		<route edges="965 341"/>
	</vehicle>
	<vehicle depart="0.1" departLane="0" departPos="142.44576952731046" departSpeed="0.12766317" id="354" type="passenger">
		<route edges="345 140"/>
	</vehicle>
	<vehicle depart="0.1" departLane="0" departPos="146.3929235000477" departSpeed="0.10879172" id="355" type="passenger">
		<route edges="146 143"/>
	</vehicle>
	<vehicle depart="0.1" departLane="0" departPos="138.67371498993407" departSpeed="0.35524641" id="357" type="passenger">
		<route edges="146 143"/>
	</vehicle>
	<vehicle depart="0.1" departLane="0" departPos="19.796994707230727" departSpeed="9.5011181e-05" id="359" type="passenger">
		<route edges="280 146"/>
	</vehicle>
	<vehicle depart="0.1" departLane="0" departPos="135.19025228085647" departSpeed="0.58046123" id="360" type="passenger">
		<route edges="345 140"/>
	</vehicle>
	<vehicle depart="0.1" departLane="0" departPos="130.63827250137743" departSpeed="0.95558691" id="361" type="passenger">
		<route edges="146 143"/>
	</vehicle>
	<vehicle depart="0.1" departLane="0" departPos="121.76610864741373" departSpeed="1.9079823" id="365" type="passenger">
		<route edges="146 143"/>
	</vehicle>
	<vehicle depart="0.1" departLane="0" departPos="126.25565603575566" departSpeed="1.7345779" id="367" type="passenger">
		<route edges="345 140"/>
	</vehicle>
	<vehicle depart="0.1" departLane="0" departPos="12.613477726849856" departSpeed="0.00038905095" id="369" type="passenger">
		<route edges="280 146"/>
	</vehicle>
	<vehicle depart="0.1" departLane="0" departPos="111.18881861459873" departSpeed="3.0247377" id="371" type="passenger">
		<route edges="146 143"/>
	</vehicle>
	<vehicle depart="0.1" departLane="0" departPos="99.03357499114182" departSpeed="4.375354" id="372" type="passenger">
		<route edges="146 143"/>
	</vehicle>
	<vehicle depart="0.1" departLane="0" departPos="24.51698443237357" departSpeed="15.977842" id="375" type="passenger">
		<route edges="147 330"/>
	</vehicle>
	<vehicle depart="0.1" departLane="0" departPos="84.15272716235647" departSpeed="6.3956905" id="378" type="passenger">
		<route edges="146 143"/>
	</vehicle>
	<vehicle depart="0.1" departLane="0" departPos="65.60764581596013" departSpeed="8.7472985" id="383" type="passenger">
		<route edges="146 143"/>
	</vehicle>
	<vehicle depart="0.1" departLane="0" departPos="44.976002054660135" departSpeed="10.776921" id="387" type="passenger">
		<route edges="146 143"/>
	</vehicle>
	<vehicle depart="0.1" departLane="0" departPos="20.316325562913377" departSpeed="13.245971" id="390" type="passenger">
		<route edges="146 143"/>
	</vehicle>
	<vehicle depart="0.1" departLane="0" departPos="7.006833518209808" departSpeed="9.3088285" id="392" type="passenger">
		<route edges=":54_5 345 140"/>
	</vehicle>
	<vehicle depart="0.1" departLane="0" departPos="30.021986140132086" departSpeed="8.3325778" id="395" type="passenger">
		<route edges="342 345 140"/>
	</vehicle>
	<vehicle depart="0.1" departLane="0" departPos="6.652461792452519" departSpeed="2.5230882" id="3101" type="passenger">
		<route edges="329 146 143"/>
	</vehicle>
	<vehicle depart="0.1" departLane="0" departPos="12.51185035764216" departSpeed="8.6131445" id="349" type="motorcycle">
		<route edges="141 344 966"/>
	</vehicle>
	<vehicle depart="0.1" departLane="0" departPos="5.286403582681987" departSpeed="0.0012885588" id="382" type="motorcycle">
		<route edges="280 146"/>
	</vehicle>
	<vehicle depart="0.1" departLane="0" departPos="13.105212773846713" departSpeed="5.0613574" id="397" type="motorcycle">
		<route edges="329 146 143"/>
	</vehicle>
	<vehicle depart="0.1" departLane="0" departPos="29.415142016741576" departSpeed="1.5107258e-05" id="348" type="truck">
		<route edges="280 146"/>
	</vehicle>
	<vehicle depart="0.1" departLane="0" departPos="64.99048744626293" departSpeed="14.130016" id="379" type="truck">
		<route edges="345 140"/>
	</vehicle>
	<vehicle depart="0.1" departLane="0" departPos="7.3822496037289715" departSpeed="10.142197" id="389" type="truck">
		<route edges="345 140"/>
	</vehicle>
	<vehicle depart="0.1" departLane="0" departPos="14.426172988964169" departSpeed="4.2879526" id="399" type="truck">
		<route edges="342 966"/>
	</vehicle>
</routes>
