<!-- generated on 2020-12-18 15:55:29.148739 by ipykernel_launcher.py v1_2_0+5214-53edc58fcd
-->
<edges>
	<edge from="1" function="normal" id="14" length="225.4499873931078" numLanes="5" priority="1" speed="36.11111111111111" spreadType="center" to="2">
		<lane allow="moped bicycle pedestrian custom1 trailer evehicle rail_urban ship private truck vip custom2 authority delivery rail_electric taxi tram army hov coach motorcycle passenger rail emergency" index="0" length="225.4499873931078" shape="-44.91155,39.72515 -41.06725,36.36905 -38.082499999999996,33.7636 -38.0707,33.75325 -29.9496,26.63055 -26.96455,24.02485 -19.009149999999998,17.0178 -17.719450000000002,15.89195 -16.051299999999998,14.43085 -7.9839,7.37255 -5.0003,4.759 -3.4325,3.3834 -3.41085,3.3646000000000003 2.9959000000000002,-2.2022500000000003 5.9891000000000005,-4.7987 9.15035,-7.54525 13.77375,-11.5902 16.7536,-14.193200000000001 16.7663,-14.20435 24.40515,-20.906799999999997 27.3771,-23.5029 29.5888,-25.4281 35.15985,-30.2992 35.183099999999996,-30.31975 38.1479,-32.92115 38.1789,-32.948750000000004 46.378699999999995,-40.234049999999996 49.329899999999995,-42.82385 51.2364,-44.49105 51.2669,-44.5175 57.049099999999996,-49.532650000000004 57.0617,-49.54365 60.048500000000004,-52.14345 67.9198,-58.96495 67.9348,-58.978 69.5094,-60.34855 70.93975,-61.58525 79.04665,-68.68805 82.04400000000001,-71.2796 86.09495,-74.804 89.8549,-78.1061 92.82875,-80.7019 95.8589,-83.3443 95.87895,-83.3616 101.1486,-87.91385 104.14595,-90.50555 105.5504,-91.68775 105.6143,-91.7403 109.5037,-94.9368 112.1882,-97.15905000000001 115.20554999999999,-99.7264 123.16405,-106.1939 123.2624,-106.2778 124.49645,-107.32535 125.92699999999999,-108.52600000000001" speed="36.11111111111111" width="3.5073943847249334"/>
		<lane allow="moped bicycle pedestrian custom1 trailer evehicle rail_urban ship private vip custom2 authority delivery rail_electric taxi tram army hov coach motorcycle passenger rail emergency" index="1" length="225.4499873931078" shape="-42.675349999999995,42.29755 -38.8329,38.99525 -38.718,38.89665 -38.68905,38.8715 -35.798,36.3586 -35.716499999999996,36.287400000000005 -27.71815,29.2825 -27.68235,29.25125 -27.6707,29.2411 -24.716450000000002,26.67295 -24.67465,26.636400000000002 -16.73205,19.637999999999998 -16.7159,19.62395 -16.6306,19.5494 -13.736,17.03315 -13.6373,16.94745 -5.64095,9.994499999999999 -5.2898499999999995,9.68885 -2.6526,7.3963 -2.3017,7.09085 5.2881,0.41505 5.38245,0.33235 8.2657,-2.174 8.367049999999999,-2.2622999999999998 16.05775,-8.8261 17.29285,-9.878 17.34545,-9.92375 19.14195,-11.484549999999999 20.328899999999997,-12.52095 26.765349999999998,-18.2633 27.76125,-19.14735 29.71915,-20.8493 30.7579,-21.749000000000002 37.51875,-27.741799999999998 38.8999,-28.969749999999998 40.4686,-30.3334 41.839150000000004,-31.539550000000002 48.664550000000006,-37.4748 48.710899999999995,-37.5144 49.98545,-38.6095 50.01705,-38.6369 51.7392,-40.1337 53.0145,-41.23825 59.444100000000006,-46.81415 61.0189,-48.184799999999996 62.43215,-49.4133 64.0178,-50.78565 70.3195,-56.2457 72.34635,-58.009550000000004 73.30765,-58.8452 75.2764,-60.5792 75.30834999999999,-60.607749999999996 81.37780000000001,-66.02324999999999 83.06975,-67.513 84.34295,-68.61975000000001 86.03295,-70.09785 86.05064999999999,-70.11355 92.15245,-75.49494999999999 94.11475,-77.21494999999999 95.1257,-78.09375 97.10714999999999,-79.8146 103.41315,-85.29634999999999 104.99414999999999,-86.672 106.40180000000001,-87.8957 108.0364,-89.27754999999999 114.36125,-94.3784 116.8684,-96.45315 116.98,-96.54929999999999 117.5035,-97.00025 117.57745,-97.0596 120.0923,-99.14805 125.51065,-103.47955 128.13585,-105.6778" speed="36.11111111111111" width="3.1182990876437753"/>
		<lane allow="moped bicycle pedestrian custom1 trailer evehicle rail_urban ship private vip custom2 authority delivery rail_electric taxi tram army hov coach motorcycle passenger rail emergency" index="2" length="225.4499873931078" shape="-40.48455,44.817800000000005 -37.981700000000004,42.6672 -36.4854,41.351299999999995 -33.5243,38.7195 -29.89315,35.483850000000004 -26.91235,32.8857 -25.635399999999997,31.791399999999996 -22.61775,29.21335 -18.9161,26.03745 -18.8681,25.9955 -15.87715,23.3846 -14.40185,22.0807 -11.4271,19.4635 -7.4910499999999995,15.9956 -4.506,13.39695 -3.1247499999999997,12.196000000000002 -0.1291,9.5953 3.2310499999999998,6.64865 6.2112,4.0318000000000005 7.53355,2.8727 7.56105,2.84885 10.55655,0.24980000000000002 14.6953,-3.2694 17.710900000000002,-5.83885 19.53745,-7.379200000000001 22.5163,-9.9421 25.694499999999998,-12.734449999999999 25.74555,-12.78025 28.68075,-15.38605 28.7239,-15.424949999999999 30.01575,-16.5872 32.98935,-19.207 36.898700000000005,-22.731 39.8232,-25.33245 39.8645,-25.3697 41.05755,-26.440600000000003 41.105599999999995,-26.4826 44.071,-29.086 48.07775,-32.558949999999996 51.08375,-35.140100000000004 52.216750000000005,-36.11725 55.201899999999995,-38.72295 59.40775,-42.39875 62.39655,-45.0002 63.1917,-45.695049999999995 66.17699999999999,-48.30045 70.1478,-51.769800000000004 73.1368,-54.371 74.49125000000001,-55.55685 77.4739,-58.16525 81.07855,-61.3585 84.0371,-63.9639 85.20465,-64.9922 85.23655,-65.01995 88.22685,-67.6197 92.2382,-71.13575 95.21770000000001,-73.7474 96.24504999999999,-74.63895 96.2798,-74.6687 99.26955000000001,-77.24045000000001 103.62905,-80.9931 103.65835,-81.01859999999999 106.6465,-83.6183 107.20805,-84.10605000000001 110.20795,-86.70925 115.00885,-90.6795 118.05685,-93.2062 119.0338,-93.9633 121.97845000000001,-96.35505 122.1135,-96.45985 126.28829999999999,-99.73095 129.3272,-102.27475 130.22225,-102.98755" speed="36.11111111111111" width="3.0768356943457404"/>
		<lane allow="moped bicycle pedestrian custom1 trailer evehicle rail_urban ship private vip custom2 authority delivery rail_electric taxi tram army hov coach motorcycle passenger rail emergency" index="3" length="225.4499873931078" shape="-38.273849999999996,47.36095 -35.79785,45.20855 -27.9673,38.14235 -27.802149999999997,37.9949 -27.7474,37.94715 -24.93365,35.50015 -24.795250000000003,35.3809 -24.759500000000003,35.35075 -16.67875,28.5164 -16.5563,28.411099999999998 -16.53105,28.389200000000002 -13.675049999999999,25.9067 -13.586300000000001,25.82875 -13.5656,25.810499999999998 -5.4997,18.6822 -5.3334,18.5357 -5.3031500000000005,18.5093 -2.4756,16.05105 -2.29985,15.89655 5.4517500000000005,9.09525 5.66425,8.9087 8.42805,6.50615 8.657399999999999,6.3072 16.8088,-0.6728000000000001 16.832,-0.69285 16.858600000000003,-0.7158 19.825499999999998,-3.29475 19.86945,-3.3333999999999997 27.75005,-10.1797 27.9506,-10.35235 30.72885,-12.76745 30.95295,-12.96455 38.83055,-19.98 39.111599999999996,-20.22785 39.143950000000004,-20.25595 41.841750000000005,-22.60155 42.118300000000005,-22.840850000000003 49.96005,-29.691650000000003 49.983,-29.71185 50.26575,-29.959899999999998 50.2907,-29.9816 52.9972,-32.33455 53.282650000000004,-32.58295 60.9698,-39.3014 61.6035,-39.8545 61.6141,-39.8637 63.9718,-41.9133 64.61699999999999,-42.4814 72.3173,-49.2859 75.30324999999999,-51.881550000000004 83.2795,-58.8261 83.31015,-58.85265 83.3267,-58.8671 86.3028,-61.4541 86.3172,-61.4667 94.25065000000001,-68.43979999999999 94.47065,-68.63105 97.2411,-71.03935 97.4303,-71.2025 97.45429999999999,-71.223 105.38974999999999,-77.99074999999999 105.9077,-78.43635 108.3693,-80.57615 108.85955000000001,-80.99785 116.7748,-87.79124999999999 116.79965,-87.8128 117.1408,-88.1086 119.7868,-90.4088 119.89359999999999,-90.50165000000001 120.09405000000001,-90.6567 128.40385,-97.0748 131.4513,-99.71905 132.2644,-100.3544" speed="36.11111111111111" width="3.232603671964752"/>
		<lane allow="moped bicycle pedestrian custom1 trailer evehicle rail_urban ship private vip custom2 authority delivery rail_electric taxi tram army hov coach motorcycle passenger rail emergency" index="4" length="225.4499873931078" shape="-36.0259,49.94695 -33.45035,47.70805 -33.122150000000005,47.4185 -33.08245,47.3829 -25.62745,40.7001 -25.25905,40.375150000000005 -22.659399999999998,38.11525 -22.253700000000002,37.76625 -14.295850000000002,30.9867 -13.9165,30.66035 -13.8904,30.63765 -11.2906,28.37795 -10.918050000000001,28.052599999999998 -10.90635,28.04235 -3.1814999999999998,21.2665 -2.7973,20.93105 -0.19764999999999994,18.6712 0.15015,18.3658 0.1775,18.3415 7.915850000000001,11.47105 8.29125,11.14135 10.8909,8.88155 11.30105,8.5298 19.09035,1.9336 19.4663,1.6112499999999998 19.5001,1.58185 22.1,-0.6777500000000001 22.4513,-0.98605 22.47655,-1.00845 29.9581,-7.6400500000000005 30.334600000000002,-7.970549999999999 32.9343,-10.230350000000001 33.28135,-10.5352 33.30915,-10.5599 41.08255,-17.463900000000002 41.45765,-17.79335 44.05735,-20.05325 44.45485,-20.397199999999998 52.265150000000006,-27.1252 52.650800000000004,-27.4589 52.6626,-27.46915 55.262299999999996,-29.729 55.647999999999996,-30.064700000000002 63.258750000000006,-36.69725 63.6477,-37.03575 66.24735000000001,-39.295649999999995 66.58755,-39.594899999999996 66.6197,-39.62355 74.58355,-46.72065 74.9562,-47.04845 77.55584999999999,-49.308350000000004 77.95325,-49.6522 85.59995,-56.2404 85.98570000000001,-56.574200000000005 85.99725000000001,-56.58425 88.5969,-58.8441 88.9428,-59.147949999999994 88.9714,-59.17335 96.50845,-65.87155 96.88315,-66.20075 99.4828,-68.46055 99.886,-68.80805000000001 107.59864999999999,-75.40084999999999 107.97995,-75.72945 108.0017,-75.74835 110.60145,-78.00815 111.0086,-78.35804999999999 119.04570000000001,-85.19295 119.424,-85.5181 119.45240000000001,-85.5428 122.0522,-87.80250000000001 122.52095,-88.1866 130.59445,-94.51480000000001 130.9266,-94.78614999999999 131.05695,-94.89914999999999 133.6594,-97.1558 134.1394,-97.54665 134.3283,-97.69315" speed="36.11111111111111" width="3.45312990343543"/>
	</edge>
</edges>
