<routes>
	<vehicle depart="0.1" departLane="4" departPos="175.12776378516114" departSpeed="20.068" id="181" type="passenger">
		<route edges="14"/>
	</vehicle>
	<vehicle depart="0.1" departLane="4" departPos="99.98860814712786" departSpeed="16.7183" id="194" type="passenger">
		<route edges="14"/>
	</vehicle>
	<vehicle depart="0.1" departLane="4" departPos="77.3874398791767" departSpeed="14.7249" id="200" type="passenger">
		<route edges="14"/>
	</vehicle>
	<vehicle depart="0.1" departLane="3" departPos="207.67222031822422" departSpeed="19.0591" id="203" type="passenger">
		<route edges="14"/>
	</vehicle>
	<vehicle depart="0.1" departLane="2" departPos="210.86284258980893" departSpeed="17.843" id="206" type="passenger">
		<route edges="14"/>
	</vehicle>
	<vehicle depart="0.1" departLane="3" departPos="189.8482408329049" departSpeed="19.1933" id="212" type="passenger">
		<route edges="14"/>
	</vehicle>
	<vehicle depart="0.1" departLane="2" departPos="188.60867204923454" departSpeed="18.0777" id="213" type="passenger">
		<route edges="14"/>
	</vehicle>
	<vehicle depart="0.1" departLane="4" departPos="28.315558725041374" departSpeed="10.6741" id="216" type="passenger">
		<route edges="14"/>
	</vehicle>
	<vehicle depart="0.1" departLane="0" departPos="220.042646469123" departSpeed="17.6052" id="219" type="passenger">
		<route edges="14"/>
	</vehicle>
	<vehicle depart="0.1" departLane="4" departPos="5.754567245549785" departSpeed="9.1653" id="220" type="passenger">
		<route edges="14"/>
	</vehicle>
	<vehicle depart="0.1" departLane="3" departPos="157.26269488054731" departSpeed="19.2756" id="221" type="passenger">
		<route edges="14"/>
	</vehicle>
	<vehicle depart="0.1" departLane="1" departPos="197.4363606617763" departSpeed="18.4343" id="224" type="passenger">
		<route edges="14"/>
	</vehicle>
	<vehicle depart="0.1" departLane="3" departPos="113.01857230675996" departSpeed="16.6116" id="225" type="passenger">
		<route edges="14"/>
	</vehicle>
	<vehicle depart="0.1" departLane="0" departPos="159.02912243455415" departSpeed="17.1298" id="226" type="passenger">
		<route edges="14"/>
	</vehicle>
	<vehicle depart="0.1" departLane="3" departPos="82.4611230037821" departSpeed="15.4259" id="227" type="passenger">
		<route edges="14 14"/>
	</vehicle>
	<vehicle depart="0.1" departLane="1" departPos="158.06315571110372" departSpeed="19.2603" id="228" type="passenger">
		<route edges="14"/>
	</vehicle>
	<vehicle depart="0.1" departLane="3" departPos="144.65568136132893" departSpeed="19.8912" id="230" type="passenger">
		<route edges="14"/>
	</vehicle>
	<vehicle depart="0.1" departLane="0" departPos="139.88073346705974" departSpeed="15.5722" id="231" type="passenger">
		<route edges="14"/>
	</vehicle>
	<vehicle depart="0.1" departLane="0" departPos="124.152645459894" departSpeed="17.2151" id="233" type="passenger">
		<route edges="14 14 14"/>
	</vehicle>
	<vehicle depart="0.1" departLane="3" departPos="52.8376234790261" departSpeed="15.2309" id="234" type="passenger">
		<route edges="14"/>
	</vehicle>
	<vehicle depart="0.1" departLane="2" departPos="61.81554638969766" departSpeed="15.2613" id="237" type="passenger">
		<route edges="14"/>
	</vehicle>
	<vehicle depart="0.1" departLane="3" departPos="0" departSpeed="12.192" id="242" type="passenger">
		<route edges="14"/>
	</vehicle>
	<vehicle depart="0.1" departLane="1" departPos="103.81842479550293" departSpeed="18.861" id="245" type="passenger">
		<route edges="14 14"/>
	</vehicle>
	<vehicle depart="0.1" departLane="0" departPos="82.69432417254669" departSpeed="16.8859" id="246" type="passenger">
		<route edges="14"/>
	</vehicle>
	<vehicle depart="0.1" departLane="2" departPos="22.90322393438325" departSpeed="14.6213" id="247" type="passenger">
		<route edges="14"/>
	</vehicle>
	<vehicle depart="0.1" departLane="0" departPos="34.96571298870547" departSpeed="16.9956" id="252" type="passenger">
		<route edges="14"/>
	</vehicle>
	<vehicle depart="0.1" departLane="1" departPos="15.47109464044451" departSpeed="16.7823" id="254" type="passenger">
		<route edges="14"/>
	</vehicle>
	<vehicle depart="0.1" departLane="0" departPos="0" departSpeed="17.3645" id="278" type="passenger">
		<route edges="14"/>
	</vehicle>
</routes>
