<?xml version="1.0" encoding="UTF-8"?>

<!-- generated on Fri Dec 18 15:55:29 2020 by Eclipse SUMO netconvert Version 1.8.0
<configuration xmlns:xsi="http://www.w3.org/2001/XMLSchema-instance" xsi:noNamespaceSchemaLocation="http://sumo.dlr.de/xsd/netconvertConfiguration.xsd">

    <input>
        <node-files value="./converted_scenarios/NGSIM/US101/USA_US101-16_2_I-1-1/nodes.net.xml"/>
        <edge-files value="./converted_scenarios/NGSIM/US101/USA_US101-16_2_I-1-1/edges.net.xml"/>
        <connection-files value="./converted_scenarios/NGSIM/US101/USA_US101-16_2_I-1-1/_connections.net.xml"/>
        <tllogic-files value="./converted_scenarios/NGSIM/US101/USA_US101-16_2_I-1-1/_tll.net.xml"/>
    </input>

    <output>
        <output-file value="./converted_scenarios/NGSIM/US101/USA_US101-16_2_I-1-1/USA_US101-16_2_I-1-1.net.xml"/>
    </output>

    <processing>
        <plain.extend-edge-shape value="true"/>
        <geometry.remove.keep-edges.explicit value="true"/>
        <geometry.avoid-overlap value="true"/>
        <offset.disable-normalization value="true"/>
    </processing>

    <junctions>
        <no-turnarounds value="true"/>
        <junctions.internal-link-detail value="20"/>
    </junctions>

    <report>
        <aggregate-warnings value="5"/>
    </report>

    <random_number>
        <seed value="1234"/>
    </random_number>

</configuration>
-->

<net version="1.6" junctionCornerDetail="5" junctionLinkDetail="20" limitTurnSpeed="5.50" xmlns:xsi="http://www.w3.org/2001/XMLSchema-instance" xsi:noNamespaceSchemaLocation="http://sumo.dlr.de/xsd/net_file.xsd">

    <location netOffset="0.00,0.00" convBoundary="-40.47,-103.05,130.18,44.83" origBoundary="-44.91,-108.53,134.33,49.95" projParameter="!"/>

    <edge id="14" from="1" to="2" priority="1" spreadType="center" length="225.45">
        <lane id="14_0" index="0" disallow="bus rail_fast" speed="36.11" length="225.45" width="3.51" customShape="1" shape="-44.91,39.73 -41.07,36.37 -38.08,33.76 -29.95,26.63 -26.96,24.02 -19.01,17.02 -17.72,15.89 -16.05,14.43 -7.98,7.37 -5.00,4.76 -3.43,3.38 3.00,-2.20 5.99,-4.80 9.15,-7.55 13.77,-11.59 16.75,-14.19 24.41,-20.91 27.38,-23.50 29.59,-25.43 35.16,-30.30 38.15,-32.92 46.38,-40.23 49.33,-42.82 51.24,-44.49 57.05,-49.53 60.05,-52.14 67.92,-58.96 69.51,-60.35 70.94,-61.59 79.05,-68.69 82.04,-71.28 86.09,-74.80 89.85,-78.11 92.83,-80.70 95.86,-83.34 101.15,-87.91 104.15,-90.51 105.55,-91.69 109.50,-94.94 112.19,-97.16 115.21,-99.73 123.16,-106.19 123.26,-106.28 124.50,-107.33 125.72,-108.35"/>
        <lane id="14_1" index="1" disallow="bus truck rail_fast" speed="36.11" length="225.45" width="3.12" customShape="1" shape="-42.68,42.30 -38.83,39.00 -38.72,38.90 -35.80,36.36 -35.72,36.29 -27.72,29.28 -24.72,26.67 -16.73,19.64 -16.63,19.55 -13.74,17.03 -13.64,16.95 -5.64,9.99 -5.29,9.69 -2.65,7.40 -2.30,7.09 5.29,0.42 5.38,0.33 8.27,-2.17 8.37,-2.26 16.06,-8.83 17.29,-9.88 19.14,-11.48 20.33,-12.52 26.77,-18.26 27.76,-19.15 29.72,-20.85 30.76,-21.75 37.52,-27.74 38.90,-28.97 40.47,-30.33 41.84,-31.54 48.66,-37.47 49.99,-38.61 51.74,-40.13 53.01,-41.24 59.44,-46.81 61.02,-48.18 62.43,-49.41 64.02,-50.79 70.32,-56.25 72.35,-58.01 73.31,-58.85 75.28,-60.58 81.38,-66.02 83.07,-67.51 84.34,-68.62 86.03,-70.10 92.15,-75.49 94.11,-77.21 95.13,-78.09 97.11,-79.81 103.41,-85.30 104.99,-86.67 106.40,-87.90 108.04,-89.28 114.36,-94.38 116.87,-96.45 116.98,-96.55 117.50,-97.00 120.09,-99.15 125.51,-103.48 128.04,-105.60"/>
        <lane id="14_2" index="2" disallow="bus truck rail_fast" speed="36.11" length="225.45" width="3.08" customShape="1" shape="-40.48,44.82 -37.98,42.67 -36.49,41.35 -33.52,38.72 -29.89,35.48 -26.91,32.89 -25.64,31.79 -22.62,29.21 -18.92,26.04 -15.88,23.38 -14.40,22.08 -11.43,19.46 -7.49,16.00 -4.51,13.40 -3.12,12.20 -0.13,9.60 3.23,6.65 6.21,4.03 7.53,2.87 10.56,0.25 14.70,-3.27 17.71,-5.84 19.54,-7.38 22.52,-9.94 25.69,-12.73 28.68,-15.39 30.02,-16.59 32.99,-19.21 36.90,-22.73 39.82,-25.33 41.06,-26.44 44.07,-29.09 48.08,-32.56 51.08,-35.14 52.22,-36.12 55.20,-38.72 59.41,-42.40 62.40,-45.00 63.19,-45.70 66.18,-48.30 70.15,-51.77 73.14,-54.37 74.49,-55.56 77.47,-58.17 81.08,-61.36 84.04,-63.96 85.20,-64.99 88.23,-67.62 92.24,-71.14 95.22,-73.75 96.25,-74.64 99.27,-77.24 103.63,-80.99 106.65,-83.62 107.21,-84.11 110.21,-86.71 115.01,-90.68 118.06,-93.21 119.03,-93.96 121.98,-96.36 122.11,-96.46 126.29,-99.73 129.33,-102.27 130.22,-102.99"/>
        <lane id="14_3" index="3" disallow="bus truck rail_fast" speed="36.11" length="225.45" width="3.23" customShape="1" shape="-38.27,47.36 -35.80,45.21 -27.97,38.14 -27.80,37.99 -24.93,35.50 -24.80,35.38 -16.68,28.52 -16.56,28.41 -13.68,25.91 -13.59,25.83 -5.50,18.68 -5.33,18.54 -2.48,16.05 -2.30,15.90 5.45,9.10 5.66,8.91 8.43,6.51 8.66,6.31 16.81,-0.67 19.83,-3.29 27.75,-10.18 27.95,-10.35 30.73,-12.77 30.95,-12.96 38.83,-19.98 39.11,-20.23 41.84,-22.60 42.12,-22.84 49.96,-29.69 50.27,-29.96 53.00,-32.33 53.28,-32.58 60.97,-39.30 61.60,-39.85 63.97,-41.91 64.62,-42.48 72.32,-49.29 75.30,-51.88 83.28,-58.83 86.30,-61.45 94.25,-68.44 94.47,-68.63 97.24,-71.04 97.43,-71.20 105.39,-77.99 105.91,-78.44 108.37,-80.58 108.86,-81.00 116.77,-87.79 117.14,-88.11 119.79,-90.41 119.89,-90.50 120.09,-90.66 128.40,-97.07 131.45,-99.72 132.37,-100.44"/>
        <lane id="14_4" index="4" disallow="bus truck rail_fast" speed="36.11" length="225.45" width="3.45" customShape="1" shape="-36.03,49.95 -33.45,47.71 -33.12,47.42 -25.63,40.70 -25.26,40.38 -22.66,38.12 -22.25,37.77 -14.30,30.99 -13.92,30.66 -11.29,28.38 -10.92,28.05 -3.18,21.27 -2.80,20.93 -0.20,18.67 0.15,18.37 7.92,11.47 8.29,11.14 10.89,8.88 11.30,8.53 19.09,1.93 19.47,1.61 22.10,-0.68 22.45,-0.99 29.96,-7.64 30.33,-7.97 32.93,-10.23 33.28,-10.54 41.08,-17.46 41.46,-17.79 44.06,-20.05 44.45,-20.40 52.27,-27.13 52.65,-27.46 55.26,-29.73 55.65,-30.06 63.26,-36.70 63.65,-37.04 66.25,-39.30 66.59,-39.59 74.58,-46.72 74.96,-47.05 77.56,-49.31 77.95,-49.65 85.60,-56.24 85.99,-56.57 88.60,-58.84 88.94,-59.15 96.51,-65.87 96.88,-66.20 99.48,-68.46 99.89,-68.81 107.60,-75.40 107.98,-75.73 110.60,-78.01 111.01,-78.36 119.05,-85.19 119.42,-85.52 122.05,-87.80 122.52,-88.19 130.59,-94.51 130.93,-94.79 131.06,-94.90 133.66,-97.16 134.14,-97.55 134.54,-97.85"/>
    </edge>

    <junction id="1" type="dead_end" x="-40.47" y="44.83" incLanes="" intLanes="" shape="-34.89,51.25 -46.06,38.40"/>
    <junction id="2" type="dead_end" x="130.18" y="-103.05" incLanes="14_0 14_1 14_2 14_3 14_4" intLanes="" shape="124.59,-109.70 135.65,-96.53"/>

</net>
