<routes>
	<vehicle depart="0.1" departLane="0" departPos="7.60592312218125" departSpeed="13.413659" id="38" type="passenger">
		<route edges="40823 40416"/>
	</vehicle>
	<vehicle depart="0.1" departLane="0" departPos="17.860619122572807" departSpeed="2.5325224" id="313" type="passenger">
		<route edges=":62_1 40968 40714"/>
	</vehicle>
	<vehicle depart="0.1" departLane="0" departPos="54.69988136726014" departSpeed="4.4736575" id="316" type="passenger">
		<route edges="40822 40819 40434"/>
	</vehicle>
	<vehicle depart="0.1" departLane="0" departPos="41.0460282768384" departSpeed="1.8351091" id="326" type="passenger">
		<route edges="40822 40968"/>
	</vehicle>
	<vehicle depart="0.1" departLane="0" departPos="18.59638488628198" departSpeed="1.3630936" id="333" type="passenger">
		<route edges=":67_1 40820"/>
	</vehicle>
	<vehicle depart="0.1" departLane="0" departPos="17.951989419150017" departSpeed="4.5644436" id="337" type="passenger">
		<route edges=":67_4 40820"/>
	</vehicle>
	<vehicle depart="0.1" departLane="0" departPos="2.5" departSpeed="5.095398" id="343" type="passenger">
		<route edges="40817 40820"/>
	</vehicle>
</routes>
