<routes>
	<vehicle depart="0.1" departLane="0" departPos="47.828535973822035" departSpeed="2.6584024" id="335" type="bus">
		<route edges="52417 52486"/>
	</vehicle>
	<vehicle depart="0.1" departLane="0" departPos="2.5" departSpeed="3.4493183" id="319" type="passenger">
		<route edges=":74_5 52483"/>
	</vehicle>
	<vehicle depart="0.1" departLane="0" departPos="13.537605179963299" departSpeed="2.530139" id="328" type="passenger">
		<route edges=":78_1 52482"/>
	</vehicle>
	<vehicle depart="0.1" departLane="0" departPos="21.880473114095537" departSpeed="1.25728" id="352" type="passenger">
		<route edges="52417 52486"/>
	</vehicle>
	<vehicle depart="0.1" departLane="0" departPos="28.16034620880502" departSpeed="2.1055223" id="361" type="passenger">
		<route edges="52417 52486"/>
	</vehicle>
	<vehicle depart="0.1" departLane="0" departPos="13.956125033490906" departSpeed="11.864409" id="383" type="passenger">
		<route edges="52416"/>
	</vehicle>
	<vehicle depart="0.1" departLane="0" departPos="11.999599707370546" departSpeed="3.6517514" id="395" type="passenger">
		<route edges=":74_3 52369 52458"/>
	</vehicle>
	<vehicle depart="0.1" departLane="0" departPos="7.378987891498197" departSpeed="2.3979783" id="3101" type="passenger">
		<route edges="52480 52483"/>
	</vehicle>
	<vehicle depart="0.1" departLane="0" departPos="58.54300258429157" departSpeed="5.22737" id="33" type="motorcycle">
		<route edges="52417 52482"/>
	</vehicle>
</routes>
