<routes>
	<vehicle depart="0.1" departLane="0" departPos="14.368898479703947" departSpeed="4.6210333" id="311" type="passenger">
		<route edges=":67_2 61384 61406"/>
	</vehicle>
	<vehicle depart="0.1" departLane="0" departPos="7.7450957533450095" departSpeed="9.3948238" id="330" type="passenger">
		<route edges=":67_0 61482 61350"/>
	</vehicle>
	<vehicle depart="0.1" departLane="0" departPos="43.90262572979309" departSpeed="0.94647636" id="333" type="passenger">
		<route edges="61387 61482"/>
	</vehicle>
	<vehicle depart="0.1" departLane="0" departPos="13.316030810286938" departSpeed="11.217219" id="335" type="passenger">
		<route edges=":64_0 61410 61448"/>
	</vehicle>
	<vehicle depart="0.1" departLane="0" departPos="35.335476404677664" departSpeed="1.1154377" id="339" type="passenger">
		<route edges="61387 61482"/>
	</vehicle>
	<vehicle depart="0.1" departLane="0" departPos="60.36769531616731" departSpeed="5.2001624" id="342" type="passenger">
		<route edges="61407 61385"/>
	</vehicle>
	<vehicle depart="0.1" departLane="0" departPos="26.652678512599405" departSpeed="1.0594212" id="344" type="passenger">
		<route edges="61387 61482"/>
	</vehicle>
	<vehicle depart="0.1" departLane="0" departPos="58.87429712247549" departSpeed="2.042151" id="315" type="motorcycle">
		<route edges="61387 61482"/>
	</vehicle>
	<vehicle depart="0.1" departLane="0" departPos="3.520883428853814" departSpeed="1.4699123" id="321" type="motorcycle">
		<route edges=":67_2 61384 61410"/>
	</vehicle>
</routes>
