<routes>
	<vehicle depart="0.1" departLane="0" departPos="20.0" departSpeed="4.0" id="1" type="bicycle">
		<route edges="6 7 8"/>
	</vehicle>
	<vehicle depart="0.1" departLane="0" departPos="15.0" departSpeed="0.0" id="2" type="passenger">
		<route edges="11"/>
	</vehicle>
	<vehicle depart="0.1" departLane="0" departPos="15.0" departSpeed="0.0" id="3" type="passenger">
		<route edges="10"/>
	</vehicle>
	<vehicle depart="0.1" departLane="0" departPos="14.0" departSpeed="0.0" id="4" type="passenger">
		<route edges="7"/>
	</vehicle>
	<vehicle depart="0.1" departLane="0" departPos="14.0" departSpeed="0.0" id="5" type="passenger">
		<route edges="8"/>
	</vehicle>
</routes>
