<?xml version="1.0" encoding="UTF-8"?>

<!-- generated on Fri Dec 18 17:09:37 2020 by Eclipse SUMO netconvert Version 1.8.0
<configuration xmlns:xsi="http://www.w3.org/2001/XMLSchema-instance" xsi:noNamespaceSchemaLocation="http://sumo.dlr.de/xsd/netconvertConfiguration.xsd">

    <input>
        <node-files value="./converted_scenarios/THI-Bicycle/RUS_Bicycle-2_2_I-1-1/nodes.net.xml"/>
        <edge-files value="./converted_scenarios/THI-Bicycle/RUS_Bicycle-2_2_I-1-1/edges.net.xml"/>
        <connection-files value="./converted_scenarios/THI-Bicycle/RUS_Bicycle-2_2_I-1-1/_connections.net.xml"/>
        <tllogic-files value="./converted_scenarios/THI-Bicycle/RUS_Bicycle-2_2_I-1-1/_tll.net.xml"/>
    </input>

    <output>
        <output-file value="./converted_scenarios/THI-Bicycle/RUS_Bicycle-2_2_I-1-1/RUS_Bicycle-2_2_I-1-1.net.xml"/>
    </output>

    <processing>
        <plain.extend-edge-shape value="true"/>
        <geometry.remove.keep-edges.explicit value="true"/>
        <geometry.avoid-overlap value="true"/>
        <offset.disable-normalization value="true"/>
    </processing>

    <junctions>
        <no-turnarounds value="true"/>
        <junctions.internal-link-detail value="20"/>
    </junctions>

    <report>
        <aggregate-warnings value="5"/>
    </report>

    <random_number>
        <seed value="1234"/>
    </random_number>

</configuration>
-->

<net version="1.6" junctionCornerDetail="5" junctionLinkDetail="20" limitTurnSpeed="5.50" xmlns:xsi="http://www.w3.org/2001/XMLSchema-instance" xsi:noNamespaceSchemaLocation="http://sumo.dlr.de/xsd/net_file.xsd">

    <location netOffset="0.00,0.00" convBoundary="0.00,11.10,40.00,29.10" origBoundary="0.00,11.10,40.00,29.10" projParameter="!"/>

    <edge id="10" from="9" to="10" priority="1" spreadType="center" length="40.00">
        <lane id="10_0" index="0" disallow="rail_fast" speed="36.11" length="40.00" width="3.00" customShape="1" shape="40.00,23.10 39.60,23.10 39.19,23.10 38.79,23.10 38.38,23.10 37.98,23.10 37.58,23.10 37.17,23.10 36.77,23.10 36.36,23.10 35.96,23.10 35.56,23.10 35.15,23.10 34.75,23.10 34.34,23.10 33.94,23.10 33.54,23.10 33.13,23.10 32.73,23.10 32.32,23.10 31.92,23.10 31.52,23.10 31.11,23.10 30.71,23.10 30.30,23.10 29.90,23.10 29.49,23.10 29.09,23.10 28.69,23.10 28.28,23.10 27.88,23.10 27.47,23.10 27.07,23.10 26.67,23.10 26.26,23.10 25.86,23.10 25.45,23.10 25.05,23.10 24.65,23.10 24.24,23.10 23.84,23.10 23.43,23.10 23.03,23.10 22.63,23.10 22.22,23.10 21.82,23.10 21.41,23.10 21.01,23.10 20.61,23.10 20.20,23.10 19.80,23.10 19.39,23.10 18.99,23.10 18.59,23.10 18.18,23.10 17.78,23.10 17.37,23.10 16.97,23.10 16.57,23.10 16.16,23.10 15.76,23.10 15.35,23.10 14.95,23.10 14.55,23.10 14.14,23.10 13.74,23.10 13.33,23.10 12.93,23.10 12.53,23.10 12.12,23.10 11.72,23.10 11.31,23.10 10.91,23.10 10.51,23.10 10.10,23.10 9.70,23.10 9.29,23.10 8.89,23.10 8.48,23.10 8.08,23.10 7.68,23.10 7.27,23.10 6.87,23.10 6.46,23.10 6.06,23.10 5.66,23.10 5.25,23.10 4.85,23.10 4.44,23.10 4.04,23.10 3.64,23.10 3.23,23.10 2.83,23.10 2.42,23.10 2.02,23.10 1.62,23.10 1.21,23.10 0.81,23.10 0.40,23.10 0.00,23.10"/>
    </edge>
    <edge id="11" from="11" to="12" priority="1" spreadType="center" length="40.00">
        <lane id="11_0" index="0" disallow="rail_fast" speed="36.11" length="40.00" width="3.00" customShape="1" shape="40.00,26.10 39.60,26.10 39.19,26.10 38.79,26.10 38.38,26.10 37.98,26.10 37.58,26.10 37.17,26.10 36.77,26.10 36.36,26.10 35.96,26.10 35.56,26.10 35.15,26.10 34.75,26.10 34.34,26.10 33.94,26.10 33.54,26.10 33.13,26.10 32.73,26.10 32.32,26.10 31.92,26.10 31.52,26.10 31.11,26.10 30.71,26.10 30.30,26.10 29.90,26.10 29.49,26.10 29.09,26.10 28.69,26.10 28.28,26.10 27.88,26.10 27.47,26.10 27.07,26.10 26.67,26.10 26.26,26.10 25.86,26.10 25.45,26.10 25.05,26.10 24.65,26.10 24.24,26.10 23.84,26.10 23.43,26.10 23.03,26.10 22.63,26.10 22.22,26.10 21.82,26.10 21.41,26.10 21.01,26.10 20.61,26.10 20.20,26.10 19.80,26.10 19.39,26.10 18.99,26.10 18.59,26.10 18.18,26.10 17.78,26.10 17.37,26.10 16.97,26.10 16.57,26.10 16.16,26.10 15.76,26.10 15.35,26.10 14.95,26.10 14.55,26.10 14.14,26.10 13.74,26.10 13.33,26.10 12.93,26.10 12.53,26.10 12.12,26.10 11.72,26.10 11.31,26.10 10.91,26.10 10.51,26.10 10.10,26.10 9.70,26.10 9.29,26.10 8.89,26.10 8.48,26.10 8.08,26.10 7.68,26.10 7.27,26.10 6.87,26.10 6.46,26.10 6.06,26.10 5.66,26.10 5.25,26.10 4.85,26.10 4.44,26.10 4.04,26.10 3.64,26.10 3.23,26.10 2.83,26.10 2.42,26.10 2.02,26.10 1.62,26.10 1.21,26.10 0.81,26.10 0.40,26.10 0.00,26.10"/>
    </edge>
    <edge id="12" from="13" to="14" priority="1" spreadType="center" length="40.00">
        <lane id="12_0" index="0" disallow="rail_fast" speed="36.11" length="40.00" width="3.00" customShape="1" shape="40.00,29.10 39.60,29.10 39.19,29.10 38.79,29.10 38.38,29.10 37.98,29.10 37.58,29.10 37.17,29.10 36.77,29.10 36.36,29.10 35.96,29.10 35.56,29.10 35.15,29.10 34.75,29.10 34.34,29.10 33.94,29.10 33.54,29.10 33.13,29.10 32.73,29.10 32.32,29.10 31.92,29.10 31.52,29.10 31.11,29.10 30.71,29.10 30.30,29.10 29.90,29.10 29.49,29.10 29.09,29.10 28.69,29.10 28.28,29.10 27.88,29.10 27.47,29.10 27.07,29.10 26.67,29.10 26.26,29.10 25.86,29.10 25.45,29.10 25.05,29.10 24.65,29.10 24.24,29.10 23.84,29.10 23.43,29.10 23.03,29.10 22.63,29.10 22.22,29.10 21.82,29.10 21.41,29.10 21.01,29.10 20.61,29.10 20.20,29.10 19.80,29.10 19.39,29.10 18.99,29.10 18.59,29.10 18.18,29.10 17.78,29.10 17.37,29.10 16.97,29.10 16.57,29.10 16.16,29.10 15.76,29.10 15.35,29.10 14.95,29.10 14.55,29.10 14.14,29.10 13.74,29.10 13.33,29.10 12.93,29.10 12.53,29.10 12.12,29.10 11.72,29.10 11.31,29.10 10.91,29.10 10.51,29.10 10.10,29.10 9.70,29.10 9.29,29.10 8.89,29.10 8.48,29.10 8.08,29.10 7.68,29.10 7.27,29.10 6.87,29.10 6.46,29.10 6.06,29.10 5.66,29.10 5.25,29.10 4.85,29.10 4.44,29.10 4.04,29.10 3.64,29.10 3.23,29.10 2.83,29.10 2.42,29.10 2.02,29.10 1.62,29.10 1.21,29.10 0.81,29.10 0.40,29.10 0.00,29.10"/>
    </edge>
    <edge id="6" from="1" to="2" priority="1" spreadType="center" length="40.00">
        <lane id="6_0" index="0" disallow="rail_fast" speed="36.11" length="40.00" width="3.00" customShape="1" shape="0.00,11.10 0.40,11.10 0.81,11.10 1.21,11.10 1.62,11.10 2.02,11.10 2.42,11.10 2.83,11.10 3.23,11.10 3.64,11.10 4.04,11.10 4.44,11.10 4.85,11.10 5.25,11.10 5.66,11.10 6.06,11.10 6.46,11.10 6.87,11.10 7.27,11.10 7.68,11.10 8.08,11.10 8.48,11.10 8.89,11.10 9.29,11.10 9.70,11.10 10.10,11.10 10.51,11.10 10.91,11.10 11.31,11.10 11.72,11.10 12.12,11.10 12.53,11.10 12.93,11.10 13.33,11.10 13.74,11.10 14.14,11.10 14.55,11.10 14.95,11.10 15.35,11.10 15.76,11.10 16.16,11.10 16.57,11.10 16.97,11.10 17.37,11.10 17.78,11.10 18.18,11.10 18.59,11.10 18.99,11.10 19.39,11.10 19.80,11.10 20.20,11.10 20.61,11.10 21.01,11.10 21.41,11.10 21.82,11.10 22.22,11.10 22.63,11.10 23.03,11.10 23.43,11.10 23.84,11.10 24.24,11.10 24.65,11.10 25.05,11.10 25.45,11.10 25.86,11.10 26.26,11.10 26.67,11.10 27.07,11.10 27.47,11.10 27.88,11.10 28.28,11.10 28.69,11.10 29.09,11.10 29.49,11.10 29.90,11.10 30.30,11.10 30.71,11.10 31.11,11.10 31.52,11.10 31.92,11.10 32.32,11.10 32.73,11.10 33.13,11.10 33.54,11.10 33.94,11.10 34.34,11.10 34.75,11.10 35.15,11.10 35.56,11.10 35.96,11.10 36.36,11.10 36.77,11.10 37.17,11.10 37.58,11.10 37.98,11.10 38.38,11.10 38.79,11.10 39.19,11.10 39.60,11.10 40.00,11.10"/>
    </edge>
    <edge id="7" from="3" to="4" priority="1" spreadType="center" length="40.00">
        <lane id="7_0" index="0" disallow="rail_fast" speed="36.11" length="40.00" width="3.00" customShape="1" shape="0.00,14.10 0.40,14.10 0.81,14.10 1.21,14.10 1.62,14.10 2.02,14.10 2.42,14.10 2.83,14.10 3.23,14.10 3.64,14.10 4.04,14.10 4.44,14.10 4.85,14.10 5.25,14.10 5.66,14.10 6.06,14.10 6.46,14.10 6.87,14.10 7.27,14.10 7.68,14.10 8.08,14.10 8.48,14.10 8.89,14.10 9.29,14.10 9.70,14.10 10.10,14.10 10.51,14.10 10.91,14.10 11.31,14.10 11.72,14.10 12.12,14.10 12.53,14.10 12.93,14.10 13.33,14.10 13.74,14.10 14.14,14.10 14.55,14.10 14.95,14.10 15.35,14.10 15.76,14.10 16.16,14.10 16.57,14.10 16.97,14.10 17.37,14.10 17.78,14.10 18.18,14.10 18.59,14.10 18.99,14.10 19.39,14.10 19.80,14.10 20.20,14.10 20.61,14.10 21.01,14.10 21.41,14.10 21.82,14.10 22.22,14.10 22.63,14.10 23.03,14.10 23.43,14.10 23.84,14.10 24.24,14.10 24.65,14.10 25.05,14.10 25.45,14.10 25.86,14.10 26.26,14.10 26.67,14.10 27.07,14.10 27.47,14.10 27.88,14.10 28.28,14.10 28.69,14.10 29.09,14.10 29.49,14.10 29.90,14.10 30.30,14.10 30.71,14.10 31.11,14.10 31.52,14.10 31.92,14.10 32.32,14.10 32.73,14.10 33.13,14.10 33.54,14.10 33.94,14.10 34.34,14.10 34.75,14.10 35.15,14.10 35.56,14.10 35.96,14.10 36.36,14.10 36.77,14.10 37.17,14.10 37.58,14.10 37.98,14.10 38.38,14.10 38.79,14.10 39.19,14.10 39.60,14.10 40.00,14.10"/>
    </edge>
    <edge id="8" from="5" to="6" priority="1" spreadType="center" length="40.00">
        <lane id="8_0" index="0" disallow="rail_fast" speed="36.11" length="40.00" width="3.00" customShape="1" shape="0.00,17.10 0.40,17.10 0.81,17.10 1.21,17.10 1.62,17.10 2.02,17.10 2.42,17.10 2.83,17.10 3.23,17.10 3.64,17.10 4.04,17.10 4.44,17.10 4.85,17.10 5.25,17.10 5.66,17.10 6.06,17.10 6.46,17.10 6.87,17.10 7.27,17.10 7.68,17.10 8.08,17.10 8.48,17.10 8.89,17.10 9.29,17.10 9.70,17.10 10.10,17.10 10.51,17.10 10.91,17.10 11.31,17.10 11.72,17.10 12.12,17.10 12.53,17.10 12.93,17.10 13.33,17.10 13.74,17.10 14.14,17.10 14.55,17.10 14.95,17.10 15.35,17.10 15.76,17.10 16.16,17.10 16.57,17.10 16.97,17.10 17.37,17.10 17.78,17.10 18.18,17.10 18.59,17.10 18.99,17.10 19.39,17.10 19.80,17.10 20.20,17.10 20.61,17.10 21.01,17.10 21.41,17.10 21.82,17.10 22.22,17.10 22.63,17.10 23.03,17.10 23.43,17.10 23.84,17.10 24.24,17.10 24.65,17.10 25.05,17.10 25.45,17.10 25.86,17.10 26.26,17.10 26.67,17.10 27.07,17.10 27.47,17.10 27.88,17.10 28.28,17.10 28.69,17.10 29.09,17.10 29.49,17.10 29.90,17.10 30.30,17.10 30.71,17.10 31.11,17.10 31.52,17.10 31.92,17.10 32.32,17.10 32.73,17.10 33.13,17.10 33.54,17.10 33.94,17.10 34.34,17.10 34.75,17.10 35.15,17.10 35.56,17.10 35.96,17.10 36.36,17.10 36.77,17.10 37.17,17.10 37.58,17.10 37.98,17.10 38.38,17.10 38.79,17.10 39.19,17.10 39.60,17.10 40.00,17.10"/>
    </edge>
    <edge id="9" from="7" to="8" priority="1" spreadType="center" length="40.00">
        <lane id="9_0" index="0" disallow="rail_fast" speed="36.11" length="40.00" width="3.00" customShape="1" shape="0.00,20.10 0.40,20.10 0.81,20.10 1.21,20.10 1.62,20.10 2.02,20.10 2.42,20.10 2.83,20.10 3.23,20.10 3.64,20.10 4.04,20.10 4.44,20.10 4.85,20.10 5.25,20.10 5.66,20.10 6.06,20.10 6.46,20.10 6.87,20.10 7.27,20.10 7.68,20.10 8.08,20.10 8.48,20.10 8.89,20.10 9.29,20.10 9.70,20.10 10.10,20.10 10.51,20.10 10.91,20.10 11.31,20.10 11.72,20.10 12.12,20.10 12.53,20.10 12.93,20.10 13.33,20.10 13.74,20.10 14.14,20.10 14.55,20.10 14.95,20.10 15.35,20.10 15.76,20.10 16.16,20.10 16.57,20.10 16.97,20.10 17.37,20.10 17.78,20.10 18.18,20.10 18.59,20.10 18.99,20.10 19.39,20.10 19.80,20.10 20.20,20.10 20.61,20.10 21.01,20.10 21.41,20.10 21.82,20.10 22.22,20.10 22.63,20.10 23.03,20.10 23.43,20.10 23.84,20.10 24.24,20.10 24.65,20.10 25.05,20.10 25.45,20.10 25.86,20.10 26.26,20.10 26.67,20.10 27.07,20.10 27.47,20.10 27.88,20.10 28.28,20.10 28.69,20.10 29.09,20.10 29.49,20.10 29.90,20.10 30.30,20.10 30.71,20.10 31.11,20.10 31.52,20.10 31.92,20.10 32.32,20.10 32.73,20.10 33.13,20.10 33.54,20.10 33.94,20.10 34.34,20.10 34.75,20.10 35.15,20.10 35.56,20.10 35.96,20.10 36.36,20.10 36.77,20.10 37.17,20.10 37.58,20.10 37.98,20.10 38.38,20.10 38.79,20.10 39.19,20.10 39.60,20.10 40.00,20.10"/>
    </edge>

    <junction id="1" type="dead_end" x="0.00" y="11.10" incLanes="" intLanes="" shape="0.00,12.60 0.00,9.60"/>
    <junction id="10" type="dead_end" x="0.00" y="23.10" incLanes="10_0" intLanes="" shape="0.00,24.60 0.00,21.60"/>
    <junction id="11" type="dead_end" x="40.00" y="26.10" incLanes="" intLanes="" shape="40.00,24.60 40.00,27.60"/>
    <junction id="12" type="dead_end" x="0.00" y="26.10" incLanes="11_0" intLanes="" shape="0.00,27.60 0.00,24.60"/>
    <junction id="13" type="dead_end" x="40.00" y="29.10" incLanes="" intLanes="" shape="40.00,27.60 40.00,30.60"/>
    <junction id="14" type="dead_end" x="0.00" y="29.10" incLanes="12_0" intLanes="" shape="0.00,30.60 0.00,27.60"/>
    <junction id="2" type="dead_end" x="40.00" y="11.10" incLanes="6_0" intLanes="" shape="40.00,9.60 40.00,12.60"/>
    <junction id="3" type="dead_end" x="0.00" y="14.10" incLanes="" intLanes="" shape="0.00,15.60 0.00,12.60"/>
    <junction id="4" type="dead_end" x="40.00" y="14.10" incLanes="7_0" intLanes="" shape="40.00,12.60 40.00,15.60"/>
    <junction id="5" type="dead_end" x="0.00" y="17.10" incLanes="" intLanes="" shape="0.00,18.60 0.00,15.60"/>
    <junction id="6" type="dead_end" x="40.00" y="17.10" incLanes="8_0" intLanes="" shape="40.00,15.60 40.00,18.60"/>
    <junction id="7" type="dead_end" x="0.00" y="20.10" incLanes="" intLanes="" shape="0.00,21.60 0.00,18.60"/>
    <junction id="8" type="dead_end" x="40.00" y="20.10" incLanes="9_0" intLanes="" shape="40.00,18.60 40.00,21.60"/>
    <junction id="9" type="dead_end" x="40.00" y="23.10" incLanes="" intLanes="" shape="40.00,21.60 40.00,24.60"/>

</net>
