<routes>
	<vehicle depart="0.1" departLane="0" departPos="31.06526405963917" departSpeed="7.8009655" id="37" type="bicycle">
		<route edges="76285 76618"/>
	</vehicle>
	<vehicle depart="0.1" departLane="0" departPos="8.871195299325745" departSpeed="1.8848322" id="311" type="passenger">
		<route edges=":66_0 76622 76625"/>
	</vehicle>
	<vehicle depart="0.1" departLane="0" departPos="13.01258898443438" departSpeed="11.172506" id="356" type="passenger">
		<route edges="76621 76286 76289"/>
	</vehicle>
	<vehicle depart="0.1" departLane="0" departPos="11.961678393976594" departSpeed="23.156246" id="353" type="motorcycle">
		<route edges=":66_5 76618"/>
	</vehicle>
</routes>
