<!-- generated on Tue Feb  9 22:19:54 2021 by Eclipse SUMO netconvert Version 1.8.0
<configuration xmlns:xsi="http://www.w3.org/2001/XMLSchema-instance" xsi:noNamespaceSchemaLocation="http://sumo.dlr.de/xsd/netconvertConfiguration.xsd">

    <input>
        <node-files value="./converted_scenarios/scenario-factory/ITA_Foggia-1_2_I-1-1/ITA_Foggia-1_2_I-1-1.nod.xml"/>
        <edge-files value="./converted_scenarios/scenario-factory/ITA_Foggia-1_2_I-1-1/ITA_Foggia-1_2_I-1-1.edg.xml"/>
        <connection-files value="./converted_scenarios/scenario-factory/ITA_Foggia-1_2_I-1-1/ITA_Foggia-1_2_I-1-1.con.xml"/>
        <tllogic-files value="./converted_scenarios/scenario-factory/ITA_Foggia-1_2_I-1-1/ITA_Foggia-1_2_I-1-1.tll.xml"/>
        <type-files value="/home/zen/commonroad-interactive-benchmarks/install/commonroad-map-tool/crmapconverter/sumo_map/templates/DEU.typ.xml"/>
    </input>

    <output>
        <output-file value="./converted_scenarios/scenario-factory/ITA_Foggia-1_2_I-1-1/ITA_Foggia-1_2_I-1-1.net.xml"/>
    </output>

    <processing>
        <geometry.remove.keep-edges.explicit value="true"/>
        <geometry.avoid-overlap value="true"/>
        <offset.disable-normalization value="true"/>
    </processing>

    <junctions>
        <no-turnarounds value="true"/>
        <junctions.internal-link-detail value="20"/>
    </junctions>

    <report>
        <aggregate-warnings value="5"/>
    </report>

    <random_number>
        <seed value="1234"/>
    </random_number>

</configuration>
--><net xmlns:xsi="http://www.w3.org/2001/XMLSchema-instance" version="1.6" junctionCornerDetail="5" junctionLinkDetail="20" limitTurnSpeed="5.50" xsi:noNamespaceSchemaLocation="http://sumo.dlr.de/xsd/net_file.xsd">

    <location netOffset="0.00,0.00" convBoundary="449.41,363.26,747.26,492.10" origBoundary="449.41,363.26,747.26,492.10" projParameter="!"/>

    <type id="highway.bridleway" priority="1" speed="2.78" allow="pedestrian" oneway="1" width="2.00"/>
    <type id="highway.bus_guideway" priority="1" speed="27.78" allow="bus" oneway="1"/>
    <type id="highway.cycleway" priority="1" speed="8.33" allow="bicycle" oneway="0" width="1.00"/>
    <type id="highway.footway" priority="1" speed="2.78" allow="pedestrian" oneway="1" width="2.00"/>
    <type id="highway.ford" priority="1" speed="2.78" allow="army" oneway="0"/>
    <type id="highway.living_street" priority="2" speed="2.78" disallow="tram rail_urban rail rail_electric rail_fast ship" oneway="0"/>
    <type id="highway.motorway" priority="14" speed="39.44" allow="private emergency authority army vip passenger hov taxi bus coach delivery truck trailer motorcycle evehicle custom1 custom2" oneway="1"/>
    <type id="highway.motorway_link" priority="9" speed="22.22" allow="private emergency authority army vip passenger hov taxi bus coach delivery truck trailer motorcycle evehicle custom1 custom2" oneway="1"/>
    <type id="highway.path" priority="1" speed="2.78" allow="pedestrian bicycle" oneway="0" width="2.00"/>
    <type id="highway.pedestrian" priority="1" speed="2.78" allow="pedestrian" oneway="1" width="2.00"/>
    <type id="highway.primary" priority="12" speed="27.78" disallow="pedestrian tram rail_urban rail rail_electric rail_fast ship" oneway="0"/>
    <type id="highway.primary_link" priority="7" speed="22.22" disallow="pedestrian tram rail_urban rail rail_electric rail_fast ship" oneway="0"/>
    <type id="highway.raceway" priority="15" speed="83.33" allow="vip" oneway="0"/>
    <type id="highway.residential" priority="3" speed="13.89" disallow="pedestrian tram rail_urban rail rail_electric rail_fast ship" oneway="0"/>
    <type id="highway.secondary" priority="11" speed="27.78" disallow="pedestrian tram rail_urban rail rail_electric rail_fast ship" oneway="0"/>
    <type id="highway.secondary_link" priority="6" speed="22.22" disallow="pedestrian tram rail_urban rail rail_electric rail_fast ship" oneway="0"/>
    <type id="highway.service" priority="1" speed="5.56" allow="pedestrian delivery bicycle" oneway="0"/>
    <type id="highway.stairs" priority="1" speed="1.39" allow="pedestrian" oneway="1" width="2.00"/>
    <type id="highway.step" priority="1" speed="1.39" allow="pedestrian" oneway="1" width="2.00"/>
    <type id="highway.steps" priority="1" speed="1.39" allow="pedestrian" oneway="1" width="2.00"/>
    <type id="highway.tertiary" priority="10" speed="22.22" disallow="pedestrian tram rail_urban rail rail_electric rail_fast ship" oneway="0"/>
    <type id="highway.tertiary_link" priority="5" speed="22.22" disallow="pedestrian tram rail_urban rail rail_electric rail_fast ship" oneway="0"/>
    <type id="highway.track" priority="1" speed="5.56" allow="pedestrian motorcycle moped bicycle" oneway="0"/>
    <type id="highway.trunk" priority="13" speed="27.78" disallow="pedestrian bicycle tram rail_urban rail rail_electric rail_fast ship" oneway="0"/>
    <type id="highway.trunk_link" priority="8" speed="22.22" disallow="pedestrian bicycle tram rail_urban rail rail_electric rail_fast ship" oneway="0"/>
    <type id="highway.unclassified" priority="4" speed="13.89" disallow="pedestrian tram rail_urban rail rail_electric rail_fast ship" oneway="0"/>
    <type id="highway.unsurfaced" priority="1" speed="8.33" disallow="tram rail_urban rail rail_electric rail_fast ship" oneway="0"/>
    <type id="railway.highspeed" priority="21" speed="69.44" allow="rail_fast" oneway="1"/>
    <type id="railway.light_rail" priority="19" speed="27.78" allow="rail_urban" oneway="1"/>
    <type id="railway.preserved" priority="16" speed="27.78" allow="rail" oneway="1"/>
    <type id="railway.rail" priority="20" speed="44.44" allow="rail" oneway="1"/>
    <type id="railway.subway" priority="18" speed="27.78" allow="rail_urban" oneway="1"/>
    <type id="railway.tram" priority="17" speed="13.89" allow="tram" oneway="1"/>

    <edge id=":61_0" function="internal">
        <lane id=":61_0_0" index="0" disallow="pedestrian tram rail_urban rail rail_electric rail_fast ship" speed="11.28" length="28.53" width="3.50" shape="656.13,424.88 655.95,421.59 655.62,419.42 655.07,417.29 654.27,415.25 653.76,414.27 653.18,413.34 652.53,412.46 651.81,411.63 651.01,410.87 650.16,410.18 649.25,409.56 647.31,408.54 645.24,407.80 643.10,407.29 640.93,406.99 638.76,406.86"/>
    </edge>
    <edge id=":61_1" function="internal">
        <lane id=":61_1_0" index="0" disallow="pedestrian tram rail_urban rail rail_electric rail_fast ship" speed="36.11" length="33.87" width="3.50" shape="656.13,424.88 656.28,404.77 656.67,391.02"/>
    </edge>
    <edge id=":61_2" function="internal">
        <lane id=":61_2_0" index="0" disallow="pedestrian tram rail_urban rail rail_electric rail_fast ship" speed="36.11" length="33.71" width="3.50" shape="660.16,391.15 659.78,404.84 659.63,424.85"/>
    </edge>
    <edge id=":61_3" function="internal">
        <lane id=":61_3_0" index="0" disallow="pedestrian tram rail_urban rail rail_electric rail_fast ship" speed="11.55" length="30.14" width="3.50" shape="660.16,391.15 659.90,393.74 659.29,396.29 658.81,397.59 658.21,398.81 657.49,399.98 656.65,401.07 655.70,402.06 654.66,402.95 653.55,403.73 652.35,404.41 649.96,405.43 647.47,406.14 644.96,406.57 642.45,406.81 638.76,406.86"/>
    </edge>
    <edge id=":61_4" function="internal">
        <lane id=":61_4_0" index="0" disallow="pedestrian tram rail_urban rail rail_electric rail_fast ship" speed="10.46" length="24.63" width="3.50" shape="638.84,403.36 642.04,403.32 644.17,403.14 646.29,402.79 648.36,402.24 650.35,401.43 651.29,400.92 652.18,400.33 653.02,399.66 653.78,398.90 654.46,398.07 655.04,397.18 655.53,396.22 655.93,395.22 656.45,393.15 656.67,391.02"/>
    </edge>
    <edge id=":61_5" function="internal">
        <lane id=":61_5_0" index="0" disallow="pedestrian tram rail_urban rail rail_electric rail_fast ship" speed="12.27" length="33.99" width="3.50" shape="638.84,403.36 641.36,403.52 643.89,403.87 646.42,404.46 648.89,405.36 651.22,406.57 652.36,407.35 653.41,408.19 654.39,409.13 655.29,410.15 656.09,411.23 656.80,412.37 657.43,413.59 658.38,416.01 659.03,418.53 659.42,421.09 659.63,424.85"/>
    </edge>
    <edge id=":62_0" function="internal">
        <lane id=":62_0_0" index="0" disallow="pedestrian tram rail_urban rail rail_electric rail_fast ship" speed="11.21" length="28.74" width="3.50" shape="574.50,405.35 571.19,405.48 569.00,405.78 566.85,406.30 564.77,407.07 563.78,407.56 562.84,408.13 561.94,408.78 561.10,409.50 560.33,410.29 559.63,411.14 559.00,412.05 558.45,413.01 557.57,415.04 556.96,417.17 556.57,419.34 556.34,422.65"/>
    </edge>
    <edge id=":62_1" function="internal">
        <lane id=":62_1_0" index="0" disallow="pedestrian tram rail_urban rail rail_electric rail_fast ship" speed="36.11" length="38.92" width="3.50" shape="574.50,405.35 555.06,405.00 535.59,404.65"/>
    </edge>
    <edge id=":62_2" function="internal">
        <lane id=":62_2_0" index="0" disallow="pedestrian tram rail_urban rail rail_electric rail_fast ship" speed="36.11" length="38.92" width="3.50" shape="535.61,401.15 555.12,401.50 574.52,401.85"/>
    </edge>
    <edge id=":62_3" function="internal">
        <lane id=":62_3_0" index="0" disallow="pedestrian tram rail_urban rail rail_electric rail_fast ship" speed="12.15" length="34.23" width="3.50" shape="535.61,401.15 539.62,401.44 542.21,401.91 544.73,402.63 547.15,403.66 548.29,404.31 549.38,405.04 550.41,405.86 551.36,406.77 552.22,407.76 553.00,408.81 553.69,409.93 554.79,412.32 555.57,414.83 556.05,417.41 556.30,420.03 556.34,422.65"/>
    </edge>
    <edge id=":62_4" function="internal">
        <lane id=":62_4_0" index="0" disallow="pedestrian tram rail_urban rail rail_electric rail_fast ship" speed="11.15" length="28.62" width="3.50" shape="552.84,422.60 552.80,420.31 552.59,418.06 552.18,415.87 551.54,413.77 550.62,411.78 550.08,410.91 549.45,410.05 548.76,409.26 548.00,408.54 547.17,407.88 546.29,407.28 545.39,406.77 543.36,405.90 541.23,405.30 539.04,404.90 535.59,404.65"/>
    </edge>
    <edge id=":62_5" function="internal">
        <lane id=":62_5_0" index="0" disallow="pedestrian tram rail_urban rail rail_electric rail_fast ship" speed="12.21" length="34.30" width="3.50" shape="552.84,422.60 553.11,418.78 553.56,416.20 554.29,413.67 555.34,411.25 556.02,410.05 556.79,408.93 557.65,407.87 558.61,406.89 559.64,406.00 560.75,405.20 561.91,404.50 563.14,403.89 565.60,402.97 568.15,402.36 570.73,402.00 574.52,401.85"/>
    </edge>
    <edge id=":63_0" function="internal">
        <lane id=":63_0_0" index="0" disallow="pedestrian tram rail_urban rail rail_electric rail_fast ship" speed="36.11" length="38.53" width="3.50" shape="624.12,488.15 591.82,487.31 585.60,487.19"/>
    </edge>
    <edge id=":63_1" function="internal">
        <lane id=":63_1_0" index="0" disallow="pedestrian tram rail_urban rail rail_electric rail_fast ship" speed="12.27" length="34.41" width="3.50" shape="624.12,488.15 620.13,487.81 617.54,487.32 615.00,486.56 612.59,485.48 611.45,484.82 610.36,484.06 609.34,483.22 608.40,482.29 607.54,481.29 606.77,480.21 606.09,479.07 605.01,476.66 604.26,474.13 603.79,471.53 603.56,468.89 603.53,466.25"/>
    </edge>
    <edge id=":63_2" function="internal">
        <lane id=":63_2_0" index="0" disallow="pedestrian tram rail_urban rail rail_electric rail_fast ship" speed="11.27" length="28.87" width="3.50" shape="607.03,466.32 607.06,468.63 607.25,470.90 607.65,473.12 608.27,475.24 609.18,477.26 609.72,478.15 610.34,479.02 611.02,479.83 611.78,480.57 612.60,481.25 613.48,481.86 614.38,482.39 616.41,483.30 618.54,483.94 620.75,484.36 624.23,484.65"/>
    </edge>
    <edge id=":63_3" function="internal">
        <lane id=":63_3_0" index="0" disallow="pedestrian tram rail_urban rail rail_electric rail_fast ship" speed="12.20" length="34.18" width="3.50" shape="607.03,466.32 606.89,468.86 606.56,471.41 605.99,473.94 605.13,476.43 603.95,478.79 603.19,479.95 602.35,481.02 601.42,482.02 600.41,482.93 599.32,483.75 598.18,484.47 596.95,485.10 594.50,486.06 591.96,486.69 589.38,487.05 585.60,487.19"/>
    </edge>
    <edge id=":63_4" function="internal">
        <lane id=":63_4_0" index="0" disallow="pedestrian tram rail_urban rail rail_electric rail_fast ship" speed="11.21" length="28.64" width="3.50" shape="585.63,483.69 588.93,483.57 591.12,483.27 593.25,482.73 595.31,481.93 596.28,481.42 597.21,480.84 598.09,480.17 598.91,479.43 599.66,478.63 600.34,477.76 600.94,476.83 601.93,474.87 602.65,472.78 603.13,470.63 603.41,468.45 603.53,466.25"/>
    </edge>
    <edge id=":63_5" function="internal">
        <lane id=":63_5_0" index="0" disallow="pedestrian tram rail_urban rail rail_electric rail_fast ship" speed="36.11" length="38.61" width="3.50" shape="585.63,483.69 591.89,483.81 624.23,484.65"/>
    </edge>
    <edge id=":64_0" function="internal">
        <lane id=":64_0_0" index="0" disallow="pedestrian tram rail_urban rail rail_electric rail_fast ship" speed="11.17" length="28.62" width="3.50" shape="626.18,406.54 622.88,406.62 620.70,406.89 618.55,407.38 616.48,408.13 615.49,408.61 614.54,409.16 613.63,409.79 612.79,410.50 612.02,411.29 611.31,412.13 610.68,413.04 610.13,413.99 609.24,416.00 608.62,418.12 608.23,420.28 607.98,423.57"/>
    </edge>
    <edge id=":64_1" function="internal">
        <lane id=":64_1_0" index="0" disallow="pedestrian tram rail_urban rail rail_electric rail_fast ship" speed="36.11" length="38.91" width="3.50" shape="626.18,406.54 606.74,406.04 587.28,405.54"/>
    </edge>
    <edge id=":64_2" function="internal">
        <lane id=":64_2_0" index="0" disallow="pedestrian tram rail_urban rail rail_electric rail_fast ship" speed="36.11" length="38.92" width="3.50" shape="587.33,402.04 606.82,402.54 626.24,403.04"/>
    </edge>
    <edge id=":64_3" function="internal">
        <lane id=":64_3_0" index="0" disallow="pedestrian tram rail_urban rail rail_electric rail_fast ship" speed="12.16" length="34.25" width="3.50" shape="587.33,402.04 591.31,402.33 593.91,402.78 596.44,403.50 598.86,404.53 600.00,405.17 601.10,405.91 602.12,406.73 603.07,407.64 603.94,408.63 604.71,409.70 605.40,410.82 606.49,413.21 607.25,415.73 607.72,418.32 607.95,420.94 607.98,423.57"/>
    </edge>
    <edge id=":64_4" function="internal">
        <lane id=":64_4_0" index="0" disallow="pedestrian tram rail_urban rail rail_electric rail_fast ship" speed="11.16" length="28.65" width="3.50" shape="604.48,423.50 604.45,421.21 604.26,418.95 603.86,416.75 603.23,414.65 602.32,412.66 601.78,411.78 601.16,410.93 600.47,410.13 599.71,409.41 598.89,408.75 598.00,408.15 597.10,407.64 595.07,406.77 592.94,406.17 590.74,405.79 587.28,405.54"/>
    </edge>
    <edge id=":64_5" function="internal">
        <lane id=":64_5_0" index="0" disallow="pedestrian tram rail_urban rail rail_electric rail_fast ship" speed="12.17" length="34.19" width="3.50" shape="604.48,423.50 604.77,419.69 605.23,417.13 605.97,414.61 607.03,412.20 607.72,411.01 608.49,409.90 609.36,408.85 610.32,407.88 611.37,407.00 612.48,406.21 613.64,405.53 614.88,404.93 617.34,404.04 619.89,403.46 622.47,403.14 626.24,403.04"/>
    </edge>
    <edge id=":65_0" function="internal">
        <lane id=":65_0_0" index="0" disallow="pedestrian tram rail_urban rail rail_electric rail_fast ship" speed="9.89" length="31.76" width="3.50" shape="681.42,384.17 680.23,383.36 676.54,381.11 674.03,379.85 671.44,378.83 670.17,378.47 668.89,378.23 667.64,378.13 666.44,378.21 665.34,378.49 664.35,378.97 663.48,379.67 662.72,380.55 662.09,381.60 661.56,382.77 661.14,384.02 660.82,385.31 660.38,388.08 660.17,390.92"/>
    </edge>
    <edge id=":65_1" function="internal">
        <lane id=":65_1_0" index="0" disallow="pedestrian tram rail_urban rail rail_electric rail_fast ship" speed="27.87" length="45.25" width="3.50" shape="681.42,384.17 677.09,381.29 671.77,378.10 666.28,375.22 661.59,373.11 656.79,371.30 651.88,369.85 647.90,368.98 643.87,368.41 639.77,368.16"/>
    </edge>
    <edge id=":65_2" function="internal">
        <lane id=":65_2_0" index="0" disallow="pedestrian tram rail_urban rail rail_electric rail_fast ship" speed="28.49" length="47.28" width="3.50" shape="639.84,364.66 644.17,364.93 648.42,365.53 652.62,366.43 657.77,367.94 662.80,369.82 667.69,372.01 673.40,375.00 678.92,378.31 683.40,381.28"/>
    </edge>
    <edge id=":65_3" function="internal">
        <lane id=":65_3_0" index="0" disallow="pedestrian tram rail_urban rail rail_electric rail_fast ship" speed="12.78" length="38.17" width="3.50" shape="639.84,364.66 642.51,364.82 645.11,365.22 647.65,365.90 650.07,366.90 651.23,367.54 652.32,368.26 653.35,369.07 654.32,369.97 655.20,370.94 656.00,371.98 657.36,374.23 658.41,376.64 659.17,379.15 659.70,381.73 660.13,385.64 660.21,389.59 660.17,390.92"/>
    </edge>
    <edge id=":65_4" function="internal">
        <lane id=":65_4_0" index="0" disallow="pedestrian tram rail_urban rail rail_electric rail_fast ship" speed="11.81" length="32.53" width="3.50" shape="656.67,390.80 656.71,389.61 656.64,386.08 656.28,382.61 655.83,380.38 655.19,378.22 654.34,376.18 653.21,374.27 652.58,373.43 651.87,372.63 651.10,371.89 650.27,371.22 649.39,370.62 648.48,370.10 646.45,369.23 644.32,368.65 642.09,368.30 639.77,368.16"/>
    </edge>
    <edge id=":65_5" function="internal">
        <lane id=":65_5_0" index="0" disallow="pedestrian tram rail_urban rail rail_electric rail_fast ship" speed="11.03" length="39.81" width="3.50" shape="656.67,390.80 656.91,387.46 657.42,384.18 657.82,382.57 658.33,380.99 658.98,379.47 659.82,378.04 660.86,376.76 662.12,375.69 663.58,374.91 665.17,374.45 666.82,374.29 668.48,374.38 670.11,374.67 671.71,375.10 674.81,376.29 677.77,377.77 682.02,380.35 683.40,381.28"/>
    </edge>
    <edge id=":66_0" function="internal">
        <lane id=":66_0_0" index="0" disallow="pedestrian tram rail_urban rail rail_electric rail_fast ship" speed="36.11" length="38.84" width="3.50" shape="677.18,489.85 657.77,489.23 638.36,488.61"/>
    </edge>
    <edge id=":66_1" function="internal">
        <lane id=":66_1_0" index="0" disallow="pedestrian tram rail_urban rail rail_electric rail_fast ship" speed="12.38" length="34.46" width="3.50" shape="677.18,489.85 674.71,489.69 672.24,489.34 669.78,488.77 667.36,487.92 665.05,486.75 662.93,485.27 661.92,484.37 661.01,483.42 660.19,482.39 659.43,481.28 658.23,479.01 657.34,476.60 656.74,474.14 656.37,471.65 656.19,467.95"/>
    </edge>
    <edge id=":66_2" function="internal">
        <lane id=":66_2_0" index="0" disallow="pedestrian tram rail_urban rail rail_electric rail_fast ship" speed="11.40" length="29.00" width="3.50" shape="659.68,467.95 659.85,471.17 660.16,473.29 660.67,475.38 661.41,477.40 662.41,479.29 663.02,480.18 663.69,481.02 664.43,481.80 665.23,482.52 666.99,483.75 668.90,484.72 670.93,485.43 673.02,485.92 675.15,486.22 677.29,486.36"/>
    </edge>
    <edge id=":66_3" function="internal">
        <lane id=":66_3_0" index="0" disallow="pedestrian tram rail_urban rail rail_electric rail_fast ship" speed="12.06" length="34.33" width="3.50" shape="659.68,467.95 659.49,471.91 659.09,474.52 658.42,477.07 657.43,479.52 656.80,480.68 656.08,481.79 655.27,482.82 654.36,483.79 653.37,484.66 652.31,485.44 651.18,486.12 650.00,486.71 647.52,487.62 644.95,488.21 642.32,488.53 638.36,488.61"/>
    </edge>
    <edge id=":66_4" function="internal">
        <lane id=":66_4_0" index="0" disallow="pedestrian tram rail_urban rail rail_electric rail_fast ship" speed="11.05" length="28.65" width="3.50" shape="638.44,485.11 641.92,485.04 644.14,484.77 646.30,484.28 648.38,483.52 649.30,483.06 650.21,482.51 651.06,481.88 651.85,481.19 652.57,480.43 653.22,479.60 653.79,478.71 654.29,477.80 655.12,475.75 655.67,473.61 656.01,471.40 656.19,467.95"/>
    </edge>
    <edge id=":66_5" function="internal">
        <lane id=":66_5_0" index="0" disallow="pedestrian tram rail_urban rail rail_electric rail_fast ship" speed="36.11" length="38.87" width="3.50" shape="638.44,485.11 657.89,485.73 677.29,486.36"/>
    </edge>
    <edge id=":67_0" function="internal">
        <lane id=":67_0_0" index="0" disallow="pedestrian tram rail_urban rail rail_electric rail_fast ship" speed="36.11" length="38.77" width="3.50" shape="573.10,486.97 553.68,486.70 534.33,486.42"/>
    </edge>
    <edge id=":67_1" function="internal">
        <lane id=":67_1_0" index="0" disallow="pedestrian tram rail_urban rail rail_electric rail_fast ship" speed="12.25" length="34.53" width="3.50" shape="573.10,486.97 569.10,486.69 566.48,486.24 563.93,485.52 561.48,484.49 560.32,483.84 559.22,483.11 558.18,482.28 557.22,481.37 556.34,480.38 555.55,479.31 554.85,478.18 553.73,475.78 552.94,473.25 552.45,470.64 552.20,468.00 552.16,465.34"/>
    </edge>
    <edge id=":67_2" function="internal">
        <lane id=":67_2_0" index="0" disallow="pedestrian tram rail_urban rail rail_electric rail_fast ship" speed="11.25" length="28.94" width="3.50" shape="555.66,465.40 555.70,467.71 555.91,469.99 556.33,472.20 556.98,474.32 557.92,476.33 558.47,477.21 559.10,478.07 559.81,478.87 560.58,479.60 561.42,480.26 562.31,480.86 563.23,481.37 565.29,482.24 567.44,482.84 569.66,483.23 573.16,483.47"/>
    </edge>
    <edge id=":67_3" function="internal">
        <lane id=":67_3_0" index="0" disallow="pedestrian tram rail_urban rail rail_electric rail_fast ship" speed="12.22" length="34.21" width="3.50" shape="555.66,465.40 555.53,467.94 555.21,470.49 554.65,473.03 553.81,475.53 552.64,477.90 551.89,479.06 551.05,480.14 550.13,481.14 549.12,482.06 548.04,482.89 546.89,483.61 545.68,484.26 543.23,485.22 540.69,485.88 538.11,486.26 534.33,486.42"/>
    </edge>
    <edge id=":67_4" function="internal">
        <lane id=":67_4_0" index="0" disallow="pedestrian tram rail_urban rail rail_electric rail_fast ship" speed="11.22" length="28.69" width="3.50" shape="534.33,482.93 537.64,482.78 539.82,482.46 541.96,481.91 544.01,481.10 544.98,480.58 545.91,479.99 546.79,479.32 547.60,478.57 548.35,477.76 549.02,476.89 549.62,475.96 550.60,473.98 551.31,471.89 551.78,469.74 552.05,467.55 552.16,465.34"/>
    </edge>
    <edge id=":67_5" function="internal">
        <lane id=":67_5_0" index="0" disallow="pedestrian tram rail_urban rail rail_electric rail_fast ship" speed="36.11" length="38.83" width="3.50" shape="534.33,482.93 553.73,483.20 573.16,483.47"/>
    </edge>
    <edge id=":68_0" function="internal">
        <lane id=":68_0_0" index="0" disallow="pedestrian tram rail_urban rail rail_electric rail_fast ship" speed="13.69" length="41.75" width="3.50" shape="524.29,404.58 522.28,404.73 520.18,405.20 518.18,405.97 516.33,407.06 514.66,408.41 513.20,409.98 511.93,411.71 510.83,413.56 509.47,416.48 508.40,419.52 507.54,422.63 506.68,426.83 506.07,431.09 505.58,436.44 505.51,437.51"/>
    </edge>
    <edge id=":68_1" function="internal">
        <lane id=":68_1_0" index="0" disallow="pedestrian tram rail_urban rail rail_electric rail_fast ship" speed="25.46" length="49.54" width="3.50" shape="524.29,404.58 521.38,404.77 518.38,405.26 514.46,406.27 510.63,407.61 505.99,409.65 501.49,411.98 496.27,415.09 490.37,419.04 484.65,423.24 480.67,426.38"/>
    </edge>
    <edge id=":68_2" function="internal">
        <lane id=":68_2_0" index="0" disallow="pedestrian tram rail_urban rail rail_electric rail_fast ship" speed="26.08" length="51.92" width="3.50" shape="478.48,423.65 482.59,420.42 488.50,416.08 494.62,412.00 500.06,408.79 504.77,406.36 509.64,404.25 513.70,402.85 517.87,401.80 521.10,401.28 524.31,401.07"/>
    </edge>
    <edge id=":68_3" function="internal">
        <lane id=":68_3_0" index="0" disallow="pedestrian tram rail_urban rail rail_electric rail_fast ship" speed="14.52" length="47.07" width="3.50" shape="502.02,437.30 502.09,436.13 502.63,430.37 503.32,425.75 504.30,421.17 505.29,417.75 506.55,414.40 508.15,411.17 509.47,409.09 511.00,407.15 512.77,405.38 514.79,403.86 517.02,402.64 519.40,401.77 521.87,401.26 524.31,401.07"/>
    </edge>

    <edge id="76237" from="45" to="65" priority="3" type="highway.residential" spreadType="center" length="70.02" shape="739.03,423.94 659.37,381.52">
        <lane id="76237_0" index="0" disallow="pedestrian tram rail_urban rail rail_electric rail_fast ship" speed="36.11" length="70.02" width="3.50" customShape="1" shape="739.03,423.94 681.41,384.16"/>
    </edge>
    <edge id="76238" from="65" to="31" priority="3" type="highway.residential" spreadType="center" length="70.00" shape="661.01,378.43 741.01,421.04">
        <lane id="76238_0" index="0" disallow="pedestrian tram rail_urban rail rail_electric rail_fast ship" speed="36.11" length="70.00" width="3.50" customShape="1" shape="683.40,381.28 741.01,421.04"/>
    </edge>
    <edge id="76285" from="61" to="66" priority="3" type="highway.residential" spreadType="center" length="43.10" shape="653.44,406.88 659.60,480.87">
        <lane id="76285_0" index="0" disallow="pedestrian tram rail_urban rail rail_electric rail_fast ship" speed="36.11" length="43.10" width="3.50" customShape="1" shape="659.63,424.85 659.66,446.41 659.68,467.95"/>
    </edge>
    <edge id="76286" from="66" to="61" priority="3" type="highway.residential" spreadType="center" length="43.09" shape="656.12,481.16 649.95,407.17">
        <lane id="76286_0" index="0" disallow="pedestrian tram rail_urban rail rail_electric rail_fast ship" speed="36.11" length="43.09" width="3.50" customShape="1" shape="656.19,467.95 656.16,446.42 656.13,424.86"/>
    </edge>
    <edge id="76288" from="65" to="61" priority="3" type="highway.residential" spreadType="center" length="0.26" shape="661.92,380.42 653.37,407.55">
        <lane id="76288_0" index="0" disallow="pedestrian tram rail_urban rail rail_electric rail_fast ship" speed="36.11" length="0.26" width="3.50" customShape="1" shape="660.17,390.92 660.17,391.03 660.16,391.18"/>
    </edge>
    <edge id="76289" from="61" to="65" priority="3" type="highway.residential" spreadType="center" length="0.25" shape="650.03,406.50 658.59,379.37">
        <lane id="76289_0" index="0" disallow="pedestrian tram rail_urban rail rail_electric rail_fast ship" speed="36.11" length="0.25" width="3.50" customShape="1" shape="656.67,391.02 656.67,390.89 656.67,390.77"/>
    </edge>
    <edge id="76291" from="33" to="65" priority="3" type="highway.residential" spreadType="center" length="70.00" shape="569.90,363.26 660.54,378.27">
        <lane id="76291_0" index="0" disallow="pedestrian tram rail_urban rail rail_electric rail_fast ship" speed="36.11" length="70.00" width="3.50" customShape="1" shape="569.90,363.26 580.01,363.47 639.89,364.66"/>
    </edge>
    <edge id="76292" from="65" to="28" priority="3" type="highway.residential" spreadType="center" length="70.00" shape="659.97,381.73 569.78,366.76">
        <lane id="76292_0" index="0" disallow="pedestrian tram rail_urban rail rail_electric rail_fast ship" speed="36.11" length="70.00" width="3.50" customShape="1" shape="639.77,368.16 579.94,366.97 569.78,366.76"/>
    </edge>
    <edge id="76618" from="66" to="50" priority="3" type="highway.residential" spreadType="center" length="70.01" shape="658.00,479.23 747.26,488.60">
        <lane id="76618_0" index="0" disallow="pedestrian tram rail_urban rail rail_electric rail_fast ship" speed="36.11" length="70.01" width="3.50" customShape="1" shape="677.29,486.36 730.03,488.05 747.26,488.60"/>
    </edge>
    <edge id="76619" from="57" to="66" priority="3" type="highway.residential" spreadType="center" length="70.01" shape="747.13,492.10 657.64,482.71">
        <lane id="76619_0" index="0" disallow="pedestrian tram rail_urban rail rail_electric rail_fast ship" speed="36.11" length="70.01" width="3.50" customShape="1" shape="747.13,492.10 729.92,491.55 677.16,489.85"/>
    </edge>
    <edge id="76621" from="63" to="66" priority="3" type="highway.residential" spreadType="center" length="14.25" shape="605.07,477.63 657.97,479.22">
        <lane id="76621_0" index="0" disallow="pedestrian tram rail_urban rail rail_electric rail_fast ship" speed="36.11" length="14.25" width="3.50" customShape="1" shape="624.23,484.65 631.34,484.88 638.47,485.11"/>
    </edge>
    <edge id="76622" from="66" to="63" priority="3" type="highway.residential" spreadType="center" length="14.28" shape="657.86,482.72 604.97,481.12">
        <lane id="76622_0" index="0" disallow="pedestrian tram rail_urban rail rail_electric rail_fast ship" speed="36.11" length="14.28" width="3.50" customShape="1" shape="638.36,488.61 631.23,488.38 624.09,488.15"/>
    </edge>
    <edge id="76624" from="67" to="63" priority="3" type="highway.residential" spreadType="center" length="12.50" shape="553.76,476.67 605.05,477.63">
        <lane id="76624_0" index="0" disallow="pedestrian tram rail_urban rail rail_electric rail_fast ship" speed="36.11" length="12.50" width="3.50" customShape="1" shape="573.16,483.47 579.38,483.58 585.66,483.69"/>
    </edge>
    <edge id="76625" from="63" to="67" priority="3" type="highway.residential" spreadType="center" length="12.53" shape="604.99,481.12 553.69,480.17">
        <lane id="76625_0" index="0" disallow="pedestrian tram rail_urban rail rail_electric rail_fast ship" speed="36.11" length="12.53" width="3.50" customShape="1" shape="585.60,487.19 579.32,487.08 573.07,486.97"/>
    </edge>
    <edge id="76627" from="58" to="67" priority="3" type="highway.residential" spreadType="center" length="13.27" shape="521.09,482.79 553.55,476.69">
        <lane id="76627_0" index="0" disallow="pedestrian tram rail_urban rail rail_electric rail_fast ship" speed="36.11" length="13.27" width="3.50" customShape="1" shape="521.09,482.79 527.70,482.86 534.36,482.93"/>
    </edge>
    <edge id="76628" from="67" to="51" priority="3" type="highway.residential" spreadType="center" length="13.30" shape="554.19,480.12 521.03,486.29">