<routes>
	<vehicle depart="0.1" departLane="0" departPos="70.02018481857435" departSpeed="0.0" id="38" type="passenger">
		<route edges="71987 71918"/>
	</vehicle>
	<vehicle depart="0.1" departLane="0" departPos="26.815417933863657" departSpeed="8.8099815" id="311" type="passenger">
		<route edges=":29_1 71988"/>
	</vehicle>
	<vehicle depart="0.1" departLane="0" departPos="62.431173397694955" departSpeed="0.094033913" id="312" type="passenger">
		<route edges="71987 71918"/>
	</vehicle>
	<vehicle depart="0.1" departLane="0" departPos="54.50842869651455" departSpeed="0.42587725" id="314" type="passenger">
		<route edges="71987 71918"/>
	</vehicle>
	<vehicle depart="0.1" departLane="0" departPos="46.08517961108798" departSpeed="0.91522626" id="334" type="passenger">
		<route edges="71987 71918"/>
	</vehicle>
	<vehicle depart="0.1" departLane="0" departPos="37.25811408055772" departSpeed="1.2317976" id="342" type="passenger">
		<route edges="71987 71918"/>
	</vehicle>
	<vehicle depart="0.1" departLane="0" departPos="28.461824646744276" departSpeed="1.3769563" id="352" type="passenger">
		<route edges="71987 71918"/>
	</vehicle>
	<vehicle depart="0.1" departLane="0" departPos="19.726050452159498" departSpeed="1.3474952" id="360" type="passenger">
		<route edges="71987 71918"/>
	</vehicle>
	<vehicle depart="0.1" departLane="0" departPos="11.280914042258283" departSpeed="1.2574708" id="367" type="passenger">
		<route edges="71987 71918"/>
	</vehicle>
	<vehicle depart="0.1" departLane="0" departPos="24.153152288106163" departSpeed="0.48165805" id="32" type="truck">
		<route edges=":29_2 71922"/>
	</vehicle>
</routes>
