<!-- generated on Tue Feb  9 22:22:47 2021 by Eclipse SUMO netconvert Version 1.8.0
<configuration xmlns:xsi="http://www.w3.org/2001/XMLSchema-instance" xsi:noNamespaceSchemaLocation="http://sumo.dlr.de/xsd/netconvertConfiguration.xsd">

    <input>
        <node-files value="./converted_scenarios/scenario-factory/ESP_Ceuta-5_1_I-1-1/ESP_Ceuta-5_1_I-1-1.nod.xml"/>
        <edge-files value="./converted_scenarios/scenario-factory/ESP_Ceuta-5_1_I-1-1/ESP_Ceuta-5_1_I-1-1.edg.xml"/>
        <connection-files value="./converted_scenarios/scenario-factory/ESP_Ceuta-5_1_I-1-1/ESP_Ceuta-5_1_I-1-1.con.xml"/>
        <tllogic-files value="./converted_scenarios/scenario-factory/ESP_Ceuta-5_1_I-1-1/ESP_Ceuta-5_1_I-1-1.tll.xml"/>
        <type-files value="/home/zen/commonroad-interactive-benchmarks/install/commonroad-map-tool/crmapconverter/sumo_map/templates/DEU.typ.xml"/>
    </input>

    <output>
        <output-file value="./converted_scenarios/scenario-factory/ESP_Ceuta-5_1_I-1-1/ESP_Ceuta-5_1_I-1-1.net.xml"/>
    </output>

    <processing>
        <geometry.remove.keep-edges.explicit value="true"/>
        <geometry.avoid-overlap value="true"/>
        <offset.disable-normalization value="true"/>
    </processing>

    <junctions>
        <no-turnarounds value="true"/>
        <junctions.internal-link-detail value="20"/>
    </junctions>

    <report>
        <aggregate-warnings value="5"/>
    </report>

    <random_number>
        <seed value="1234"/>
    </random_number>

</configuration>
--><net xmlns:xsi="http://www.w3.org/2001/XMLSchema-instance" version="1.6" junctionCornerDetail="5" junctionLinkDetail="20" limitTurnSpeed="5.50" xsi:noNamespaceSchemaLocation="http://sumo.dlr.de/xsd/net_file.xsd">

    <location netOffset="0.00,0.00" convBoundary="-833.12,-295.17,-665.37,-83.49" origBoundary="-833.12,-295.17,-664.58,-82.38" projParameter="!"/>

    <type id="highway.bridleway" priority="1" speed="2.78" allow="pedestrian" oneway="1" width="2.00"/>
    <type id="highway.bus_guideway" priority="1" speed="27.78" allow="bus" oneway="1"/>
    <type id="highway.cycleway" priority="1" speed="8.33" allow="bicycle" oneway="0" width="1.00"/>
    <type id="highway.footway" priority="1" speed="2.78" allow="pedestrian" oneway="1" width="2.00"/>
    <type id="highway.ford" priority="1" speed="2.78" allow="army" oneway="0"/>
    <type id="highway.living_street" priority="2" speed="2.78" disallow="tram rail_urban rail rail_electric rail_fast ship" oneway="0"/>
    <type id="highway.motorway" priority="14" speed="39.44" allow="private emergency authority army vip passenger hov taxi bus coach delivery truck trailer motorcycle evehicle custom1 custom2" oneway="1"/>
    <type id="highway.motorway_link" priority="9" speed="22.22" allow="private emergency authority army vip passenger hov taxi bus coach delivery truck trailer motorcycle evehicle custom1 custom2" oneway="1"/>
    <type id="highway.path" priority="1" speed="2.78" allow="pedestrian bicycle" oneway="0" width="2.00"/>
    <type id="highway.pedestrian" priority="1" speed="2.78" allow="pedestrian" oneway="1" width="2.00"/>
    <type id="highway.primary" priority="12" speed="27.78" disallow="pedestrian tram rail_urban rail rail_electric rail_fast ship" oneway="0"/>
    <type id="highway.primary_link" priority="7" speed="22.22" disallow="pedestrian tram rail_urban rail rail_electric rail_fast ship" oneway="0"/>
    <type id="highway.raceway" priority="15" speed="83.33" allow="vip" oneway="0"/>
    <type id="highway.residential" priority="3" speed="13.89" disallow="pedestrian tram rail_urban rail rail_electric rail_fast ship" oneway="0"/>
    <type id="highway.secondary" priority="11" speed="27.78" disallow="pedestrian tram rail_urban rail rail_electric rail_fast ship" oneway="0"/>
    <type id="highway.secondary_link" priority="6" speed="22.22" disallow="pedestrian tram rail_urban rail rail_electric rail_fast ship" oneway="0"/>
    <type id="highway.service" priority="1" speed="5.56" allow="pedestrian delivery bicycle" oneway="0"/>
    <type id="highway.stairs" priority="1" speed="1.39" allow="pedestrian" oneway="1" width="2.00"/>
    <type id="highway.step" priority="1" speed="1.39" allow="pedestrian" oneway="1" width="2.00"/>
    <type id="highway.steps" priority="1" speed="1.39" allow="pedestrian" oneway="1" width="2.00"/>
    <type id="highway.tertiary" priority="10" speed="22.22" disallow="pedestrian tram rail_urban rail rail_electric rail_fast ship" oneway="0"/>
    <type id="highway.tertiary_link" priority="5" speed="22.22" disallow="pedestrian tram rail_urban rail rail_electric rail_fast ship" oneway="0"/>
    <type id="highway.track" priority="1" speed="5.56" allow="pedestrian motorcycle moped bicycle" oneway="0"/>
    <type id="highway.trunk" priority="13" speed="27.78" disallow="pedestrian bicycle tram rail_urban rail rail_electric rail_fast ship" oneway="0"/>
    <type id="highway.trunk_link" priority="8" speed="22.22" disallow="pedestrian bicycle tram rail_urban rail rail_electric rail_fast ship" oneway="0"/>
    <type id="highway.unclassified" priority="4" speed="13.89" disallow="pedestrian tram rail_urban rail rail_electric rail_fast ship" oneway="0"/>
    <type id="highway.unsurfaced" priority="1" speed="8.33" disallow="tram rail_urban rail rail_electric rail_fast ship" oneway="0"/>
    <type id="railway.highspeed" priority="21" speed="69.44" allow="rail_fast" oneway="1"/>
    <type id="railway.light_rail" priority="19" speed="27.78" allow="rail_urban" oneway="1"/>
    <type id="railway.preserved" priority="16" speed="27.78" allow="rail" oneway="1"/>
    <type id="railway.rail" priority="20" speed="44.44" allow="rail" oneway="1"/>
    <type id="railway.subway" priority="18" speed="27.78" allow="rail_urban" oneway="1"/>
    <type id="railway.tram" priority="17" speed="13.89" allow="tram" oneway="1"/>

    <edge id=":29_0" function="internal">
        <lane id=":29_0_0" index="0" disallow="pedestrian tram rail_urban rail rail_electric rail_fast ship" speed="36.11" length="42.32" width="3.49" shape="-763.08,-194.70 -770.66,-208.21 -778.88,-223.71 -783.10,-231.98"/>
    </edge>
    <edge id=":29_1" function="internal">
        <lane id=":29_1_0" index="0" disallow="pedestrian tram rail_urban rail rail_electric rail_fast ship" speed="15.06" length="41.40" width="3.50" shape="-763.08,-194.70 -763.68,-195.78 -765.12,-198.99 -765.87,-201.29 -766.40,-203.64 -766.70,-206.03 -766.77,-208.43 -766.61,-210.83 -766.23,-213.21 -765.30,-216.64 -764.00,-219.93 -762.41,-223.06 -760.58,-226.03 -758.56,-228.86 -755.63,-232.44"/>
    </edge>
    <edge id=":29_2" function="internal">
        <lane id=":29_2_0" index="0" disallow="pedestrian tram rail_urban rail rail_electric rail_fast ship" speed="14.20" length="36.87" width="3.50" shape="-753.10,-230.00 -755.70,-226.84 -757.55,-224.26 -759.22,-221.57 -760.67,-218.75 -761.86,-215.81 -762.72,-212.76 -763.07,-210.67 -763.24,-208.57 -763.20,-206.45 -762.96,-204.35 -762.51,-202.29 -761.86,-200.28 -760.57,-197.38 -760.05,-196.45"/>
    </edge>
    <edge id=":29_3" function="internal">
        <lane id=":29_3_0" index="0" disallow="pedestrian tram rail_urban rail rail_electric rail_fast ship" speed="11.64" length="38.79" width="3.49" shape="-753.11,-230.01 -756.11,-226.85 -758.33,-224.84 -760.71,-223.03 -761.98,-222.23 -763.29,-221.51 -764.66,-220.91 -766.08,-220.43 -767.55,-220.13 -769.04,-220.01 -770.53,-220.10 -771.99,-220.41 -773.40,-220.93 -774.72,-221.63 -775.95,-222.48 -777.09,-223.45 -778.15,-224.51 -780.03,-226.84 -781.66,-229.35 -783.10,-231.98"/>
    </edge>
    <edge id=":29_4" function="internal">
        <lane id=":29_4_0" index="0" disallow="pedestrian tram rail_urban rail rail_electric rail_fast ship" speed="10.58" length="31.83" width="3.50" shape="-779.99,-233.60 -778.74,-231.29 -777.35,-229.16 -775.76,-227.20 -774.92,-226.37 -774.01,-225.60 -773.05,-224.96 -772.04,-224.44 -771.00,-224.07 -769.92,-223.85 -768.82,-223.80 -767.71,-223.91 -766.59,-224.16 -765.48,-224.54 -764.38,-225.04 -763.31,-225.63 -762.28,-226.29 -760.24,-227.84 -758.34,-229.56 -755.63,-232.44"/>
    </edge>
    <edge id=":29_5" function="internal">
        <lane id=":29_5_0" index="0" disallow="pedestrian tram rail_urban rail rail_electric rail_fast ship" speed="36.11" length="42.17" width="3.50" shape="-779.99,-233.60 -775.77,-225.32 -767.59,-209.89 -760.05,-196.45"/>
    </edge>
    <edge id=":30_0" function="internal">
        <lane id=":30_0_0" index="0" disallow="pedestrian tram rail_urban rail rail_electric rail_fast ship" speed="36.11" length="32.27" width="3.50" shape="-730.10,-182.83 -738.20,-178.63 -742.26,-176.40 -746.27,-174.09 -750.22,-171.67 -754.08,-169.11 -757.79,-166.36"/>
        <lane id=":30_0_1" index="1" disallow="pedestrian tram rail_urban rail rail_electric rail_fast ship" speed="36.11" length="33.13" width="3.50" shape="-731.56,-186.02 -739.92,-181.67 -744.06,-179.40 -748.15,-177.04 -752.20,-174.56 -756.18,-171.92 -759.98,-169.09"/>
    </edge>
    <edge id=":30_2" function="internal">
        <lane id=":30_2_0" index="0" disallow="pedestrian tram rail_urban rail rail_electric rail_fast ship" speed="13.00" length="36.82" width="3.50" shape="-731.56,-186.02 -735.23,-184.38 -738.51,-183.28 -741.32,-182.66 -744.18,-182.37 -746.48,-182.42 -748.76,-182.75 -750.98,-183.37 -753.09,-184.29 -755.07,-185.46 -757.32,-187.25 -759.33,-189.31 -761.43,-192.05 -762.96,-194.48"/>
    </edge>
    <edge id=":30_3" function="internal">
        <lane id=":30_3_0" index="0" disallow="pedestrian tram rail_urban rail rail_electric rail_fast ship" speed="11.50" length="28.78" width="3.50" shape="-759.93,-196.24 -758.67,-194.31 -757.18,-192.56 -755.44,-191.06 -753.97,-190.14 -752.40,-189.44 -750.74,-188.95 -748.46,-188.64 -746.16,-188.67 -743.32,-189.09 -740.54,-189.84 -737.31,-191.06 -734.69,-192.28"/>
    </edge>
    <edge id=":30_4" function="internal">
        <lane id=":30_4_0" index="0" disallow="pedestrian tram rail_urban rail rail_electric rail_fast ship" speed="12.12" length="29.87" width="3.50" shape="-759.93,-196.24 -757.82,-192.25 -756.28,-188.62 -755.28,-185.38 -754.76,-182.62 -754.60,-180.37 -754.73,-178.12 -755.21,-175.91 -756.05,-173.82 -757.24,-171.91 -758.72,-170.21 -759.98,-169.09"/>
    </edge>
    <edge id=":30_5" function="internal">
        <lane id=":30_5_0" index="0" disallow="pedestrian tram rail_urban rail rail_electric rail_fast ship" speed="10.46" length="22.12" width="3.50" shape="-764.37,-174.54 -762.70,-176.09 -761.62,-177.41 -760.74,-178.87 -760.10,-180.44 -759.71,-182.10 -759.57,-183.79 -759.74,-186.06 -760.22,-188.27 -761.18,-190.94 -762.68,-194.00 -762.96,-194.48"/>
    </edge>
    <edge id=":30_6" function="internal">
        <lane id=":30_6_0" index="0" disallow="pedestrian tram rail_urban rail rail_electric rail_fast ship" speed="36.11" length="34.63" width="3.50" shape="-764.37,-174.54 -760.40,-177.50 -756.28,-180.25 -752.08,-182.84 -747.80,-185.32 -743.47,-187.71 -734.69,-192.28"/>
        <lane id=":30_6_1" index="1" disallow="pedestrian tram rail_urban rail rail_electric rail_fast ship" speed="36.11" length="33.89" width="3.50" shape="-762.18,-171.82 -758.33,-174.68 -754.29,-177.37 -750.16,-179.91 -745.97,-182.34 -741.73,-184.67 -733.12,-189.15"/>
    </edge>
    <edge id=":31_0" function="internal">
        <lane id=":31_0_0" index="0" disallow="pedestrian tram rail_urban rail rail_electric rail_fast ship" speed="36.11" length="31.86" width="3.50" shape="-757.98,-166.21 -761.47,-163.26 -764.81,-160.17 -768.03,-156.96 -771.16,-153.66 -774.19,-150.27 -777.14,-146.81 -780.03,-143.30"/>
        <lane id=":31_0_1" index="1" disallow="pedestrian tram rail_urban rail rail_electric rail_fast ship" speed="36.11" length="32.71" width="3.50" shape="-760.18,-168.94 -763.77,-165.90 -767.19,-162.74 -770.49,-159.46 -773.68,-156.08 -776.79,-152.61 -779.81,-149.07 -782.82,-145.41"/>
    </edge>
    <edge id=":31_2" function="internal">
        <lane id=":31_2_0" index="0" disallow="pedestrian tram rail_urban rail rail_electric rail_fast ship" speed="11.23" length="31.88" width="3.50" shape="-760.18,-168.93 -762.63,-167.19 -764.75,-166.05 -767.01,-165.23 -768.77,-164.86 -770.57,-164.76 -772.37,-164.93 -774.12,-165.37 -775.79,-166.05 -777.87,-167.25 -779.78,-168.71 -781.93,-170.81 -784.24,-173.58 -786.32,-176.56"/>
    </edge>
    <edge id=":31_3" function="internal">
        <lane id=":31_3_0" index="0" disallow="pedestrian tram rail_urban rail rail_electric rail_fast ship" speed="9.49" length="22.49" width="3.50" shape="-783.31,-178.35 -781.58,-175.96 -779.92,-174.16 -778.52,-172.98 -776.97,-172.00 -775.27,-171.31 -773.47,-170.97 -771.64,-171.02 -769.85,-171.41 -768.15,-172.09 -766.03,-173.31 -764.57,-174.39"/>
    </edge>
    <edge id=":31_4" function="internal">
        <lane id=":31_4_0" index="0" disallow="pedestrian tram rail_urban rail rail_electric rail_fast ship" speed="14.72" length="35.56" width="3.50" shape="-783.32,-178.34 -781.15,-174.67 -779.50,-171.20 -778.39,-168.12 -777.60,-164.93 -777.24,-162.22 -777.19,-159.48 -777.47,-156.76 -778.09,-154.10 -779.04,-151.53 -780.27,-149.09 -782.09,-146.35 -782.82,-145.41"/>
    </edge>
    <edge id=":31_5" function="internal">
        <lane id=":31_5_0" index="0" disallow="pedestrian tram rail_urban rail rail_electric rail_fast ship" speed="13.34" length="29.20" width="3.50" shape="-788.39,-149.64 -786.25,-152.57 -784.84,-154.96 -783.70,-157.49 -782.88,-160.15 -782.45,-162.89 -782.42,-165.67 -782.81,-168.42 -783.57,-171.09 -784.66,-173.64 -786.32,-176.56"/>
    </edge>
    <edge id=":31_6" function="internal">
        <lane id=":31_6_0" index="0" disallow="pedestrian tram rail_urban rail rail_electric rail_fast ship" speed="36.11" length="34.41" width="3.50" shape="-788.39,-149.64 -785.12,-153.64 -781.95,-157.34 -778.70,-160.96 -775.35,-164.50 -771.88,-167.94 -768.28,-171.26 -764.57,-174.39"/>
        <lane id=":31_6_1" index="1" disallow="pedestrian tram rail_urban rail rail_electric rail_fast ship" speed="36.11" length="33.57" width="3.50" shape="-785.60,-147.52 -782.46,-151.36 -779.36,-154.99 -776.18,-158.54 -772.90,-162.00 -769.52,-165.36 -766.01,-168.59 -762.37,-171.67"/>
    </edge>

    <edge id="71791" from="22" to="31" priority="3" type="highway.residential" spreadType="center" length="70.11" shape="-830.06,-228.88 -775.59,-166.13">
        <lane id="71791_0" index="0" disallow="pedestrian tram rail_urban rail rail_electric rail_fast ship" speed="36.11" length="70.11" width="3.50" customShape="1" shape="-830.06,-228.88 -824.74,-224.30 -816.80,-217.70 -812.66,-214.62 -804.48,-209.20 -801.62,-206.99 -799.38,-204.85 -797.03,-202.11 -794.63,-198.75 -792.23,-194.77 -786.01,-182.88 -783.32,-178.34"/>
    </edge>
    <edge id="71792" from="31" to="24" priority="3" type="highway.residential" spreadType="center" length="70.00" shape="-778.23,-163.84 -833.12,-226.89">
        <lane id="71792_0" index="0" disallow="pedestrian tram rail_urban rail rail_electric rail_fast ship" speed="36.11" length="70.00" width="3.50" customShape="1" shape="-786.32,-176.56 -788.96,-180.98 -795.04,-192.64 -797.31,-196.45 -799.55,-199.64 -801.72,-202.22 -803.76,-204.21 -806.42,-206.28 -814.41,-211.57 -818.56,-214.63 -826.40,-221.12 -833.12,-226.89"/>
    </edge>
    <edge id="71918" from="29" to="7" priority="3" type="highway.residential" spreadType="center" length="37.58" shape="-767.12,-218.72 -803.85,-263.10">
        <lane id="71918_0" index="0" disallow="pedestrian tram rail_urban rail rail_electric rail_fast ship" speed="36.11" length="37.58" width="3.49" customShape="1" shape="-783.10,-231.98 -787.03,-239.53 -790.77,-246.06 -794.30,-251.53 -797.84,-256.39 -801.35,-260.63 -803.85,-263.10"/>
    </edge>
    <edge id="71919" from="27" to="29" priority="3" type="highway.residential" spreadType="center" length="38.80" shape="-801.48,-265.66 -764.43,-220.95">
        <lane id="71919_0" index="0" disallow="pedestrian tram rail_urban rail rail_electric rail_fast ship" speed="36.11" length="38.80" width="3.50" customShape="1" shape="-801.48,-265.66 -798.85,-263.08 -795.17,-258.66 -791.50,-253.64 -787.85,-247.99 -784.00,-241.29 -779.99,-233.58"/>
    </edge>
    <edge id="71921" from="30" to="29" priority="3" type="highway.residential" spreadType="center" length="0.27" shape="-753.84,-184.73 -767.44,-219.24">
        <lane id="71921_0" index="0" disallow="pedestrian tram rail_urban rail rail_electric rail_fast ship" speed="36.11" length="0.27" width="3.50" customShape="1" shape="-762.96,-194.48 -763.02,-194.60 -763.09,-194.72"/>
    </edge>
    <edge id="71922" from="29" to="30" priority="3" type="highway.residential" spreadType="center" length="0.24" shape="-764.19,-220.52 -750.59,-186.01">
        <lane id="71922_0" index="0" disallow="pedestrian tram rail_urban rail rail_electric rail_fast ship" speed="36.11" length="0.24" width="3.50" customShape="1" shape="-760.05,-196.45 -759.99,-196.35 -759.93,-196.24"/>
    </edge>
    <edge id="71987" from="26" to="29" priority="3" type="highway.residential" spreadType="center" length="70.13" shape="-744.02,-292.88 -764.14,-219.38">
        <lane id="71987_0" index="0" disallow="pedestrian tram rail_urban rail rail_electric rail_fast ship" speed="36.11" length="70.13" width="3.50" customShape="1" shape="-744.02,-292.88 -742.83,-289.96 -740.13,-282.32 -737.94,-275.05 -736.86,-270.62 -736.27,-266.61 -736.03,-262.57 -736.12,-258.52 -736.59,-253.47 -737.20,-249.98 -737.93,-247.56 -738.94,-245.24 -740.25,-243.07 -741.77,-241.05 -744.19,-238.45 -750.55,-232.66 -753.11,-230.01"/>
    </edge>
    <edge id="71988" from="29" to="13" priority="3" type="highway.residential" spreadType="center" length="70.00" shape="-767.52,-220.26 -748.76,-295.17">
        <lane id="71988_0" index="0" disallow="pedestrian tram rail_urban rail rail_electric rail_fast ship" speed="36.11" length="70.00" width="3.50" customShape="1" shape="-755.63,-232.44 -753.11,-235.06 -746.79,-240.80 -744.50,-243.24 -743.11,-245.09 -741.94,-247.06 -741.07,-249.17 -740.48,-251.41 -739.97,-254.73 -739.58,-259.60 -739.57,-263.48 -739.88,-267.33 -740.57,-271.16 -741.68,-275.42 -743.89,-282.54 -746.61,-290.03 -748.76,-295.17"/>
    </edge>
    <edge id="72162" from="31" to="21" priority="3" type="highway.residential" spreadType="center" length="69.64" shape="-773.77,-163.51 -815.74,-83.49">
        <lane id="72162_0" index="0" disallow="pedestrian tram rail_urban rail rail_electric rail_fast ship" speed="36.11" length="69.64" width="3.50" customShape="1" shape="-780.03,-143.30 -783.08,-139.27 -786.70,-133.82 -790.81,-126.87 -800.55,-109.22 -808.96,-93.13 -814.17,-82.71"/>
        <lane id="72162_1" index="1" disallow="pedestrian tram rail_urban rail rail_electric rail_fast ship" speed="36.11" length="70.36" width="3.50" customShape="1" shape="-782.77,-145.47 -785.90,-141.35 -789.58,-135.82 -793.71,-128.84 -803.48,-111.17 -811.90,-95.08 -817.30,-84.27"/>
    </edge>
    <edge id="72165" from="28" to="31" priority="3" type="highway.residential" spreadType="center" length="69.44" shape="-821.33,-87.95 -779.97,-166.76">
        <lane id="72165_0" index="0" disallow="pedestrian tram rail_urban rail rail_electric rail_fast ship" speed="36.11" length="70.09" width="3.50" customShape="1" shape="-822.90,-88.74 -817.37,-99.75 -808.95,-115.78 -799.18,-133.39 -794.99,-140.35 -791.28,-145.85 -788.39,-149.64"/>
        <lane id="72165_1" index="1" disallow="pedestrian tram rail_urban rail rail_electric rail_fast ship" speed="36.11" length="69.44" width="3.50" customShape="1" shape="-819.77,-87.17 -814.64,-97.41 -806.21,-113.48 -796.45,-131.12 -792.28,-138.09 -788.59,-143.60 -785.60,-147.52"/>
    </edge>
    <edge id="72167" from="30" to="31" priority="3" type="highway.residential" spreadType="center" length="0.27" shape="-750.01,-182.75 -775.01,-162.09">
        <lane id="72167_0" index="0" disallow="pedestrian tram rail_urban rail rail_electric rail_fast ship" speed="36.11" length="0.27" width="3.50" customShape="1" shape="-757.79,-166.36 -757.90,-166.28 -758.00,-166.19"/>
        <lane id="72167_1" index="1" disallow="pedestrian tram rail_urban rail rail_electric rail_fast ship" speed="36.11" length="0.28" width="3.50" customShape="1" shape="-759.96,-169.11 -760.08,-169.01 -760.18,-168.93"/>
    </edge>
    <edge id="72170" from="31" to="30" priority="3" type="highway.residential" spreadType="center" length="0.26" shape="-779.44,-167.45 -754.48,-188.14">
        <lane id="72170_0" index="0" disallow="pedestrian tram rail_urban rail rail_electric rail_fast ship" speed="36.11" length="0.26" width="3.50" customShape="1" shape="-764.57,-174.39 -764.46,-174.47 -764.37,-174.55"/>
        <lane id="72170_1" index="1" disallow="pedestrian tram rail_urban rail rail_electric rail_fast ship" speed="36.11" length="0.26" width="3.50" customShape="1" shape="-762.37,-171.66 -762.27,-171.74 -762.17,-171.82"/>
    </edge>
    <edge id="72172" from="25" to="30" priority="3" type="highway.residential" spreadType="center" length="69.97" shape="-665.37,-209.11 -751.33,-182.07">
        <lane id="72172_0" index="0" disallow="pedestrian tram rail_urban rail rail_electric rail_fast ship" speed="36.11" length="69.97" width="3.50" customShape="1" shape="-664.72,-207.48 -670.46,-205.19 -678.56,-202.33 -696.43,-196.84 -704.58,-194.12 -711.65,-191.39 -719.98,-187.75 -730.10,-182.84"/>
        <lane id="72172_1" index="1" disallow="pedestrian tram rail_urban rail rail_electric rail_fast ship" speed="36.11" length="70.22" width="3.50" customShape="1" shape="-666.02,-210.73 -671.94,-208.37 -679.97,-205.56 -697.84,-200.06 -706.05,-197.31 -713.18,-194.55 -721.55,-190.88 -731.63,-185.99"/>
    </edge>
    <edge id="72175" from="30" to="15" priority="3" type="highway.residential" spreadType="center" length="69.89" shape="-753.42,-188.74 -668.51,-215.39">
        <lane id="72175_0" index="0" disallow="pedestrian tram rail_urban rail rail_electric rail_fast ship" speed="36.11" length="70.16" width="3.50" customShape="1" shape="-734.69,-192.28 -724.72,-197.12 -716.41,-200.79 -709.34,-203.57 -701.24,-206.33 -683.59,-211.74 -675.61,-214.47 -669.15,-217.02"/>
        <lane id="72175_1" index="1" disallow="pedestrian tram rail_urban rail rail_electric rail_fast ship" speed="36.11" length="69.89" width="3.50" customShape="1" shape="-733.16,-189.13 -723.13,-194.00 -714.79,-197.67 -707.70,-200.44 -699.54,-203.19 -681.78,-208.65 -673.78,-211.42 -667.87,-213.76"/>
    </edge>

    <junction id="13" type="dead_end" x="-748.76" y="-295.17" incLanes="71988_0" intLanes="" shape="-750.37,-294.49 -747.15,-295.84" rightOfWay="edgePriority"/>
    <junction id="15" type="dead_end" x="-668.51" y="-215.39" incLanes="72175_0 72175_1" intLanes="" shape="-669.79,-218.65 -667.23,-212.13" rightOfWay="edgePriority"/>
    <junction id="21" type="dead_end" x="-815.74" y="-83.49" incLanes="72162_0 72162_1" intLanes="" shape="-812.61,-81.93 -818.87,-85.06" rightOfWay="edgePriority"/>
    <junction id="22" type="dead_end" x="-830.06" y="-228.88" incLanes="" intLanes="" shape="-831.20,-227.56 -828.91,-230.21" rightOfWay="edgePriority"/>
    <junction id="24" type="dead_end" x="-833.12" y="-226.89" incLanes="71792_0" intLanes="" shape="-834.26,-225.57 -831.98,-228.22" rightOfWay="edgePriority"/>
    <junction id="25" type="dead_end" x="-665.37" y="-209.11" incLanes="" intLanes="" shape="-666.67,-212.36 -664.07,-205.86" rightOfWay="edgePriority"/>
    <junction id="26" type="dead_end" x="-744.02" y="-292.88" incLanes="" intLanes="" shape="-745.64,-292.22 -742.40,-293.54" rightOfWay="edgePriority"/>
    <junction id="27" type="dead_end" x="-801.48" y="-265.66" incLanes="" intLanes="" shape="-802.70,-264.42 -800.25,-266.91" rightOfWay="edgePriority"/>
    <junction id="28" type="dead_end" x="-821.33" y="-87.95" incLanes="" intLanes="" shape="-818.20,-86.39 -824.46,-89.52" rightOfWay="edgePriority"/>
    <junction id="29" type="priority" x="-765.81" y="-219.88" incLanes="71921_0 71987_0 71919_0" intLanes=":29_0_0 :29_1_0 :29_2_0 :29_3_0 :29_4_0 :29_5_0" shape="-764.60,-193.83 -758.54,-197.32 -760.81,-202.47 -761.74,-207.65 -761.30,-212.88 -759.51,-218.14 -756.36,-223.45 -751.85,-228.80 -756.89,-233.65 -761.30,-229.70 -765.38,-227.39 -769.14,-226.70 -772.57,-227.64 -775.67,-230.21 -778.44,-234.40 -784.65,-231.17">
        <request index="0" response="000000" foes="001000" cont="0"/>
        <request index="1" response="110000" foes="111000" cont="0"/>
        <request index="2" response="100000" foes="100000" cont="0"/>
        <request index="3" response="100011" foes="100011" cont="0"/>
        <request index="4" response="000000" foes="000010" cont="0"/>
        <request index="5" response="000000" foes="001110" cont="0"/>
    </junction>
    <junction id="30" type="priority" x="-752.25" y="-185.45" incLanes="72172_0 72172_1 71922_0 72170_0 72170_1" intLanes=":30_0_0 :30_0_1 :30_2_0 :30_3_0 :30_4_0 :30_5_0 :30_6_0 :30_6_1" shape="-729.34,-181.26 -735.45,-193.86 -740.68,-191.72 -745.34,-190.65 -749.45,-190.66 -753.00,-191.74 -755.99,-193.90 -758.42,-197.12 -764.47,-193.61 -762.63,-189.90 -761.60,-186.50 -761.36,-183.40 -761.93,-180.61 -763.29,-178.11 -765.46,-175.91 -756.70,-165.00 -751.36,-169.18 -747.27,-172.10 -743.73,-174.26 -740.04,-176.17 -735.47,-178.34">
        <request index="0" response="00000000" foes="00010000" cont="0"/>
        <request index="1" response="00000000" foes="00010000" cont="0"/>
        <request index="2" response="11100000" foes="11110000" cont="0"/>
        <request index="3" response="11000000" foes="11000000" cont="0"/>
        <request index="4" response="11000111" foes="11000111" cont="0"/>
        <request index="5" response="00000000" foes="00000100" cont="0"/>
        <request index="6" response="00000000" foes="00011100" cont="0"/>
        <request index="7" response="00000000" foes="00011100" cont="0"/>
    </junction>
    <junction id="31" type="priority" x="-776.93" y="-165.02" incLanes="72167_0 72167_1 71791_0 72165_0 72165_1" intLanes=":31_0_0 :31_0_1 :31_2_0 :31_3_0 :31_4_0 :31_5_0 :31_6_0 :31_6_1" shape="-756.89,-164.85 -765.66,-175.75 -768.76,-173.72 -771.69,-172.73 -774.47,-172.79 -777.08,-173.89 -779.53,-176.04 -781.81,-179.24 -787.83,-175.66 -785.80,-171.47 -784.71,-167.29 -784.57,-163.13 -785.37,-158.97 -787.10,-154.83 -789.78,-150.70 -778.63,-142.24 -774.58,-147.57 -771.51,-151.48 -768.80,-154.56 -765.87,-157.42 -762.10,-160.64">
        <request index="0" response="00000000" foes="00010000" cont="0"/>
        <request index="1" response="00000000" foes="00010000" cont="0"/>
        <request index="2" response="11100000" foes="11110000" cont="0"/>
        <request index="3" response="11000000" foes="11000000" cont="0"/>
        <request index="4" response="11000111" foes="11000111" cont="0"/>
        <request index="5" response="00000000" foes="00000100" cont="0"/>
        <request index="6" response="00000000" foes="00011100" cont="0"/>
        <request index="7" response="00000000" foes="00011100" cont="0"/>
    </junction>
    <junction id="7" type="dead_end" x="-803.85" y="-263.10" incLanes="71918_0" intLanes="" shape="-805.07,-261.85 -802.62,-264.34" rightOfWay="edgePriority"/>

    <connection from="71791" to="72170" fromLane="0" toLane="0" contPos="-4.00" shape="-783.37,-178.44 -781.58,-175.96 -779.92,-174.16 -778.52,-172.98 -776.97,-172.00 -775.27,-171.31 -773.47,-170.97 -771.64,-171.02 -769.85,-171.41 -768.15,-172.09 -766.03,-173.31 -764.57,-174.39" via=":31_3_0" dir="r" state="m"/>
    <connection from="71791" to="72162" fromLane="0" toLane="1" contPos="-4.00" shape="-783.37,-178.44 -781.15,-174.67 -779.50,-171.20 -778.39,-168.12 -777.60,-164.93 -777.24,-162.22 -777.19,-159.48 -777.47,-156.76 -778.09,-154.10 -779.04,-151.53 -780.27,-149.09 -782.09,-146.35 -782.77,-145.47" via=":31_4_0" dir="l" state="m"/>
    <connection from="71919" to="71988" fromLane="0" toLane="0" contPos="-4.00" shape="-779.99,-233.58 -778.74,-231.29 -777.35,-229.16 -775.76,-227.20 -774.92,-226.37 -774.01,-225.60 -773.05,-224.96 -772.04,-224.44 -771.00,-224.07 -769.92,-223.85 -768.82,-223.80 -767.71,-223.91 -766.59,-224.16 -765.48,-224.54 -764.38,-225.04 -763.31,-225.63 -762.28,-226.29 -760.24,-227.84 -758.34,-229.56 -755.63,-232.44" via=":29_4_0" dir="r" state="M"/>
    <connection from="71919" to="71922" fromLane="0" toLane="0" contPos="-4.00" shape="-779.99,-233.58 -775.77,-225.32 -767.59,-209.89 -760.05,-196.45" via=":29_5_0" dir="s" state="M"/>
    <connection from="71921" to="71918" fromLane="0" toLane="0" contPos="-4.00" shape="-763.09,-194.72 -770.66,-208.21 -778.88,-223.71 -783.10,-231.98" via=":29_0_0" dir="s" state="M"/>
    <connection from="71921" to="71988" fromLane="0" toLane="0" contPos="-4.00" shape="-763.09,-194.72 -763.68,-195.78 -765.12,-198.99 -765.87,-201.29 -766.40,-203.64 -766.70,-206.03 -766.77,-208.43 -766.61,-210.83 -766.23,-213.21 -765.30,-216.64 -764.00,-219.93 -762.41,-223.06 -760.58,-226.03 -758.56,-228.86 -755.63,-232.44" via=":29_1_0" dir="L" state="m"/>
    <connection from="71922" to="72175" fromLane="0" toLane="0" contPos="-4.00" shape="-759.93,-196.24 -758.67,-194.31 -757.18,-192.56 -755.44,-191.06 -753.97,-190.14 -752.40,-189.44 -750.74,-188.95 -748.46,-188.64 -746.16,-188.67 -743.32,-189.09 -740.54,-189.84 -737.31,-191.06 -734.69,-192.28" via=":30_3_0" dir="r" state="m"/>
    <connection from="71922" to="72167" fromLane="0" toLane="1" contPos="-4.00" shape="-759.93,-196.24 -757.82,-192.25 -756.28,-188.62 -755.28,-185.38 -754.76,-182.62 -754.60,-180.37 -754.73,-178.12 -755.21,-175.91 -756.05,-173.82 -757.24,-171.91 -758.72,-170.21 -759.96,-169.11" via=":30_4_0" dir="l" state="m"/>