<routes>
	<vehicle depart="0.1" departLane="0" departPos="24.782005360499635" departSpeed="0.040666453" id="31" type="passenger">
		<route edges="40485 40482"/>
	</vehicle>
	<vehicle depart="0.1" departLane="0" departPos="5.210572876793562" departSpeed="0.36645496" id="39" type="passenger">
		<route edges=":146_0 40485 40482"/>
	</vehicle>
	<vehicle depart="0.1" departLane="0" departPos="15.608704225685122" departSpeed="0.19676918" id="316" type="passenger">
		<route edges="40485 40482"/>
	</vehicle>
	<vehicle depart="0.1" departLane="0" departPos="11.634641239394266" departSpeed="7.430224" id="317" type="passenger">
		<route edges=":147_2 40486 40782"/>
	</vehicle>
	<vehicle depart="0.1" departLane="0" departPos="8.072670821256164" departSpeed="0.14464237" id="322" type="passenger">
		<route edges="40485 40482"/>
	</vehicle>
	<vehicle depart="0.1" departLane="0" departPos="37.45452525262684" departSpeed="0.17534638" id="334" type="passenger">
		<route edges=":145_1 41013"/>
	</vehicle>
	<vehicle depart="0.1" departLane="0" departPos="25.4606763660541" departSpeed="0.35571198" id="368" type="passenger">
		<route edges=":146_0 40485"/>
	</vehicle>
	<vehicle depart="0.1" departLane="0" departPos="23.8176481047678" departSpeed="12.555939" id="372" type="passenger">
		<route edges=":146_5 41014 40410"/>
	</vehicle>
	<vehicle depart="0.1" departLane="0" departPos="11.025354643557755" departSpeed="12.766678" id="382" type="passenger">
		<route edges=":146_4 40782"/>
	</vehicle>
	<vehicle depart="0.1" departLane="0" departPos="16.635191936707674" departSpeed="6.1823848" id="379" type="truck">
		<route edges=":145_1 41013"/>
	</vehicle>
</routes>
