<!-- generated on Tue Feb  9 22:00:38 2021 by Eclipse SUMO netconvert Version 1.8.0
<configuration xmlns:xsi="http://www.w3.org/2001/XMLSchema-instance" xsi:noNamespaceSchemaLocation="http://sumo.dlr.de/xsd/netconvertConfiguration.xsd">

    <input>
        <node-files value="./converted_scenarios/scenario-factory/DEU_Backnang-1_4_I-1-1/DEU_Backnang-1_4_I-1-1.nod.xml"/>
        <edge-files value="./converted_scenarios/scenario-factory/DEU_Backnang-1_4_I-1-1/DEU_Backnang-1_4_I-1-1.edg.xml"/>
        <connection-files value="./converted_scenarios/scenario-factory/DEU_Backnang-1_4_I-1-1/DEU_Backnang-1_4_I-1-1.con.xml"/>
        <tllogic-files value="./converted_scenarios/scenario-factory/DEU_Backnang-1_4_I-1-1/DEU_Backnang-1_4_I-1-1.tll.xml"/>
        <type-files value="/home/zen/commonroad-interactive-benchmarks/install/commonroad-map-tool/crmapconverter/sumo_map/templates/DEU.typ.xml"/>
    </input>

    <output>
        <output-file value="./converted_scenarios/scenario-factory/DEU_Backnang-1_4_I-1-1/DEU_Backnang-1_4_I-1-1.net.xml"/>
    </output>

    <processing>
        <geometry.remove.keep-edges.explicit value="true"/>
        <geometry.avoid-overlap value="true"/>
        <offset.disable-normalization value="true"/>
    </processing>

    <junctions>
        <no-turnarounds value="true"/>
        <junctions.internal-link-detail value="20"/>
    </junctions>

    <report>
        <aggregate-warnings value="5"/>
    </report>

    <random_number>
        <seed value="1234"/>
    </random_number>

</configuration>
--><net xmlns:xsi="http://www.w3.org/2001/XMLSchema-instance" version="1.6" junctionCornerDetail="5" junctionLinkDetail="20" limitTurnSpeed="5.50" xsi:noNamespaceSchemaLocation="http://sumo.dlr.de/xsd/net_file.xsd">

    <location netOffset="0.00,0.00" convBoundary="-675.25,42.46,-181.39,486.88" origBoundary="-675.25,42.46,-181.39,486.88" projParameter="!"/>

    <type id="highway.bridleway" priority="1" speed="2.78" allow="pedestrian" oneway="1" width="2.00"/>
    <type id="highway.bus_guideway" priority="1" speed="27.78" allow="bus" oneway="1"/>
    <type id="highway.cycleway" priority="1" speed="8.33" allow="bicycle" oneway="0" width="1.00"/>
    <type id="highway.footway" priority="1" speed="2.78" allow="pedestrian" oneway="1" width="2.00"/>
    <type id="highway.ford" priority="1" speed="2.78" allow="army" oneway="0"/>
    <type id="highway.living_street" priority="2" speed="2.78" disallow="tram rail_urban rail rail_electric rail_fast ship" oneway="0"/>
    <type id="highway.motorway" priority="14" speed="39.44" allow="private emergency authority army vip passenger hov taxi bus coach delivery truck trailer motorcycle evehicle custom1 custom2" oneway="1"/>
    <type id="highway.motorway_link" priority="9" speed="22.22" allow="private emergency authority army vip passenger hov taxi bus coach delivery truck trailer motorcycle evehicle custom1 custom2" oneway="1"/>
    <type id="highway.path" priority="1" speed="2.78" allow="pedestrian bicycle" oneway="0" width="2.00"/>
    <type id="highway.pedestrian" priority="1" speed="2.78" allow="pedestrian" oneway="1" width="2.00"/>
    <type id="highway.primary" priority="12" speed="27.78" disallow="pedestrian tram rail_urban rail rail_electric rail_fast ship" oneway="0"/>
    <type id="highway.primary_link" priority="7" speed="22.22" disallow="pedestrian tram rail_urban rail rail_electric rail_fast ship" oneway="0"/>
    <type id="highway.raceway" priority="15" speed="83.33" allow="vip" oneway="0"/>
    <type id="highway.residential" priority="3" speed="13.89" disallow="pedestrian tram rail_urban rail rail_electric rail_fast ship" oneway="0"/>
    <type id="highway.secondary" priority="11" speed="27.78" disallow="pedestrian tram rail_urban rail rail_electric rail_fast ship" oneway="0"/>
    <type id="highway.secondary_link" priority="6" speed="22.22" disallow="pedestrian tram rail_urban rail rail_electric rail_fast ship" oneway="0"/>
    <type id="highway.service" priority="1" speed="5.56" allow="pedestrian delivery bicycle" oneway="0"/>
    <type id="highway.stairs" priority="1" speed="1.39" allow="pedestrian" oneway="1" width="2.00"/>
    <type id="highway.step" priority="1" speed="1.39" allow="pedestrian" oneway="1" width="2.00"/>
    <type id="highway.steps" priority="1" speed="1.39" allow="pedestrian" oneway="1" width="2.00"/>
    <type id="highway.tertiary" priority="10" speed="22.22" disallow="pedestrian tram rail_urban rail rail_electric rail_fast ship" oneway="0"/>
    <type id="highway.tertiary_link" priority="5" speed="22.22" disallow="pedestrian tram rail_urban rail rail_electric rail_fast ship" oneway="0"/>
    <type id="highway.track" priority="1" speed="5.56" allow="pedestrian motorcycle moped bicycle" oneway="0"/>
    <type id="highway.trunk" priority="13" speed="27.78" disallow="pedestrian bicycle tram rail_urban rail rail_electric rail_fast ship" oneway="0"/>
    <type id="highway.trunk_link" priority="8" speed="22.22" disallow="pedestrian bicycle tram rail_urban rail rail_electric rail_fast ship" oneway="0"/>
    <type id="highway.unclassified" priority="4" speed="13.89" disallow="pedestrian tram rail_urban rail rail_electric rail_fast ship" oneway="0"/>
    <type id="highway.unsurfaced" priority="1" speed="8.33" disallow="tram rail_urban rail rail_electric rail_fast ship" oneway="0"/>
    <type id="railway.highspeed" priority="21" speed="69.44" allow="rail_fast" oneway="1"/>
    <type id="railway.light_rail" priority="19" speed="27.78" allow="rail_urban" oneway="1"/>
    <type id="railway.preserved" priority="16" speed="27.78" allow="rail" oneway="1"/>
    <type id="railway.rail" priority="20" speed="44.44" allow="rail" oneway="1"/>
    <type id="railway.subway" priority="18" speed="27.78" allow="rail_urban" oneway="1"/>
    <type id="railway.tram" priority="17" speed="13.89" allow="tram" oneway="1"/>

    <edge id=":145_0" function="internal">
        <lane id=":145_0_0" index="0" disallow="pedestrian tram rail_urban rail rail_electric rail_fast ship" speed="10.93" length="28.68" width="3.50" shape="-296.23,298.89 -298.85,296.59 -300.68,295.29 -302.61,294.19 -304.66,293.37 -305.66,293.09 -306.70,292.90 -307.75,292.80 -308.79,292.80 -309.83,292.90 -310.87,293.10 -311.88,293.40 -312.85,293.76 -314.81,294.79 -316.63,296.06 -318.33,297.53 -320.70,300.05"/>
    </edge>
    <edge id=":145_1" function="internal">
        <lane id=":145_1_0" index="0" disallow="pedestrian tram rail_urban rail rail_electric rail_fast ship" speed="36.11" length="38.63" width="3.50" shape="-296.23,298.89 -310.07,285.40 -323.89,271.93"/>
    </edge>
    <edge id=":145_2" function="internal">
        <lane id=":145_2_0" index="0" disallow="pedestrian tram rail_urban rail rail_electric rail_fast ship" speed="36.11" length="38.59" width="3.50" shape="-321.45,269.43 -307.63,282.89 -293.81,296.36"/>
    </edge>
    <edge id=":145_3" function="internal">
        <lane id=":145_3_0" index="0" disallow="pedestrian tram rail_urban rail rail_electric rail_fast ship" speed="12.57" length="34.52" width="3.50" shape="-321.45,269.43 -318.93,272.18 -317.41,274.22 -316.11,276.42 -315.07,278.80 -314.37,281.32 -314.05,283.90 -314.04,285.28 -314.33,287.85 -314.97,290.36 -315.91,292.75 -317.08,295.00 -318.44,297.12 -320.70,300.05"/>
    </edge>
    <edge id=":145_4" function="internal">
        <lane id=":145_4_0" index="0" disallow="pedestrian tram rail_urban rail rail_electric rail_fast ship" speed="11.59" length="29.21" width="3.50" shape="-323.37,297.79 -321.38,295.22 -320.21,293.39 -319.21,291.48 -318.41,289.47 -317.87,287.37 -317.63,285.22 -317.63,284.14 -317.88,281.99 -318.45,279.91 -319.32,277.92 -320.41,276.06 -321.70,274.32 -323.89,271.93"/>
    </edge>
    <edge id=":145_5" function="internal">
        <lane id=":145_5_0" index="0" disallow="pedestrian tram rail_urban rail rail_electric rail_fast ship" speed="11.95" length="34.50" width="3.50" shape="-323.37,297.79 -320.64,294.89 -318.63,293.15 -316.46,291.63 -314.10,290.40 -312.87,289.93 -311.59,289.56 -310.29,289.31 -308.97,289.18 -307.64,289.18 -306.32,289.30 -305.01,289.54 -303.74,289.90 -301.28,290.89 -298.97,292.20 -296.80,293.74 -293.81,296.36"/>
    </edge>
    <edge id=":146_0" function="internal">
        <lane id=":146_0_0" index="0" disallow="pedestrian tram rail_urban rail rail_electric rail_fast ship" speed="11.21" length="28.40" width="3.50" shape="-326.78,269.11 -329.23,266.96 -331.01,265.69 -332.92,264.62 -334.94,263.79 -335.99,263.49 -337.06,263.28 -338.15,263.15 -339.24,263.12 -340.33,263.18 -341.41,263.33 -342.48,263.58 -344.54,264.30 -346.49,265.29 -348.32,266.49 -350.03,267.86 -351.63,269.34"/>
    </edge>
    <edge id=":146_1" function="internal">
        <lane id=":146_1_0" index="0" disallow="pedestrian tram rail_urban rail rail_electric rail_fast ship" speed="12.16" length="33.73" width="3.50" shape="-326.78,269.11 -328.50,267.30 -330.11,265.34 -331.55,263.22 -332.76,260.91 -333.66,258.47 -333.98,257.14 -334.19,255.81 -334.28,254.47 -334.26,253.13 -334.12,251.79 -333.88,250.48 -333.52,249.17 -332.58,246.76 -331.36,244.48 -329.91,242.35 -327.50,239.49"/>
    </edge>
    <edge id=":146_2" function="internal">
        <lane id=":146_2_0" index="0" disallow="pedestrian tram rail_urban rail rail_electric rail_fast ship" speed="11.16" length="28.23" width="3.50" shape="-324.93,241.87 -327.03,244.36 -328.26,246.16 -329.29,248.07 -330.08,250.10 -330.36,251.15 -330.56,252.22 -330.67,253.30 -330.68,254.39 -330.61,255.47 -330.44,256.55 -330.19,257.60 -329.44,259.64 -328.43,261.57 -327.21,263.37 -325.82,265.05 -324.35,266.60"/>
    </edge>
    <edge id=":146_3" function="internal">
        <lane id=":146_3_0" index="0" disallow="pedestrian tram rail_urban rail rail_electric rail_fast ship" speed="36.11" length="38.31" width="3.50" shape="-324.93,241.87 -338.52,256.10 -351.63,269.34"/>
    </edge>
    <edge id=":146_4" function="internal">
        <lane id=":146_4_0" index="0" disallow="pedestrian tram rail_urban rail rail_electric rail_fast ship" speed="36.11" length="38.16" width="3.50" shape="-354.09,266.86 -341.02,253.66 -327.50,239.49"/>
    </edge>
    <edge id=":146_5" function="internal">
        <lane id=":146_5_0" index="0" disallow="pedestrian tram rail_urban rail rail_electric rail_fast ship" speed="12.21" length="33.91" width="3.50" shape="-354.09,266.86 -352.24,265.14 -350.25,263.55 -348.09,262.14 -345.76,260.95 -343.29,260.09 -341.95,259.78 -340.62,259.59 -339.27,259.52 -337.92,259.56 -336.58,259.72 -335.26,259.98 -333.95,260.36 -331.54,261.35 -329.27,262.63 -327.17,264.12 -324.35,266.60"/>
    </edge>
    <edge id=":147_0" function="internal">
        <lane id=":147_0_0" index="0" disallow="pedestrian tram rail_urban rail rail_electric rail_fast ship" speed="36.11" length="39.42" width="3.50" shape="-367.43,285.01 -381.57,298.75 -394.46,310.78 -395.99,312.18"/>
    </edge>
    <edge id=":147_1" function="internal">
        <lane id=":147_1_0" index="0" disallow="pedestrian tram rail_urban rail rail_electric rail_fast ship" speed="11.39" length="38.35" width="3.50" shape="-367.43,285.01 -370.51,287.84 -372.73,289.59 -375.11,291.17 -377.67,292.48 -379.09,293.03 -380.55,293.44 -382.07,293.70 -383.63,293.78 -385.21,293.64 -386.76,293.29 -388.24,292.71 -389.61,291.96 -390.87,291.06 -392.00,290.05 -393.03,288.94 -394.76,286.63 -396.21,284.17 -397.44,281.63"/>
    </edge>
    <edge id=":147_2" function="internal">
        <lane id=":147_2_0" index="0" disallow="pedestrian tram rail_urban rail rail_electric rail_fast ship" speed="10.33" length="31.28" width="3.50" shape="-394.24,280.22 -393.19,282.38 -391.97,284.45 -390.51,286.37 -389.69,287.24 -388.78,288.03 -387.79,288.72 -386.73,289.28 -385.60,289.70 -384.43,289.94 -383.23,290.02 -382.03,289.94 -380.84,289.71 -379.69,289.37 -378.57,288.93 -376.44,287.81 -374.44,286.47 -372.56,284.97 -369.90,282.52"/>
    </edge>
    <edge id=":147_3" function="internal">
        <lane id=":147_3_0" index="0" disallow="pedestrian tram rail_urban rail rail_electric rail_fast ship" speed="14.10" length="34.35" width="3.50" shape="-394.24,280.22 -392.47,284.61 -391.37,287.99 -390.52,291.44 -389.99,294.96 -389.86,297.32 -389.94,299.69 -390.26,302.04 -390.86,304.33 -391.74,306.53 -392.91,308.59 -394.34,310.48 -395.99,312.18"/>
    </edge>
    <edge id=":147_4" function="internal">
        <lane id=":147_4_0" index="0" disallow="pedestrian tram rail_urban rail rail_electric rail_fast ship" speed="13.21" length="30.01" width="3.50" shape="-398.37,309.61 -396.96,308.16 -395.77,306.57 -394.82,304.84 -394.12,302.98 -393.65,301.03 -393.41,299.02 -393.38,296.96 -393.52,294.90 -394.03,291.77 -394.82,288.68 -395.82,285.63 -397.44,281.63"/>
    </edge>
    <edge id=":147_5" function="internal">
        <lane id=":147_5_0" index="0" disallow="pedestrian tram rail_urban rail rail_electric rail_fast ship" speed="36.11" length="39.30" width="3.50" shape="-398.37,309.61 -396.82,308.20 -383.98,296.21 -369.90,282.52"/>
    </edge>
    <edge id=":148_0" function="internal">
        <lane id=":148_0_0" index="0" disallow="pedestrian tram rail_urban rail rail_electric rail_fast ship" speed="11.52" length="29.14" width="3.50" shape="-402.99,265.51 -403.68,263.40 -404.51,261.41 -405.54,259.52 -406.79,257.77 -408.28,256.22 -409.11,255.53 -409.99,254.92 -410.92,254.37 -411.90,253.91 -413.93,253.21 -416.04,252.80 -418.19,252.64 -420.34,252.70 -423.55,253.12 -425.66,253.56"/>
    </edge>
    <edge id=":148_1" function="internal">
        <lane id=":148_1_0" index="0" disallow="pedestrian tram rail_urban rail rail_electric rail_fast ship" speed="36.11" length="40.20" width="3.50" shape="-403.00,265.51 -403.57,263.48 -414.29,226.93"/>
    </edge>
    <edge id=":148_2" function="internal">
        <lane id=":148_2_0" index="0" disallow="pedestrian tram rail_urban rail rail_electric rail_fast ship" speed="13.87" length="35.80" width="3.50" shape="-403.00,265.51 -403.58,263.05 -403.93,260.61 -404.04,258.15 -403.87,255.69 -403.41,253.27 -402.66,250.93 -401.64,248.68 -400.37,246.57 -398.90,244.59 -397.25,242.76 -394.53,240.26 -391.58,238.03 -388.46,236.03"/>
    </edge>
    <edge id=":148_3" function="internal">
        <lane id=":148_3_0" index="0" disallow="pedestrian tram rail_urban rail rail_electric rail_fast ship" speed="12.97" length="31.19" width="3.50" shape="-386.62,239.01 -389.49,240.84 -392.14,242.83 -394.57,245.04 -396.01,246.63 -397.30,248.34 -398.41,250.15 -399.30,252.05 -399.95,254.04 -400.36,256.09 -400.52,258.18 -400.44,260.30 -400.14,262.41 -399.65,264.50"/>
    </edge>
    <edge id=":148_4" function="internal">
        <lane id=":148_4_0" index="0" disallow="pedestrian tram rail_urban rail rail_electric rail_fast ship" speed="36.11" length="41.81" width="3.50" shape="-386.62,239.01 -391.26,241.56 -396.91,244.24 -402.71,246.60 -409.59,249.03 -417.58,251.46 -425.66,253.56"/>
    </edge>
    <edge id=":148_5" function="internal">
        <lane id=":148_5_0" index="0" disallow="pedestrian tram rail_urban rail rail_electric rail_fast ship" speed="11.55" length="36.93" width="3.50" shape="-386.62,239.01 -387.88,239.73 -390.31,240.94 -392.89,241.95 -395.59,242.65 -397.05,242.86 -398.51,242.94 -399.98,242.87 -401.46,242.63 -402.91,242.22 -404.30,241.64 -405.60,240.89 -406.80,240.02 -407.89,239.04 -408.87,237.97 -409.75,236.85 -410.55,235.66 -411.88,233.26 -412.99,230.75 -414.29,226.93"/>
    </edge>
    <edge id=":148_6" function="internal">
        <lane id=":148_6_0" index="0" disallow="pedestrian tram rail_urban rail rail_electric rail_fast ship" speed="10.50" length="30.28" width="3.50" shape="-410.93,225.95 -409.81,229.25 -408.87,231.39 -407.75,233.43 -407.10,234.39 -406.38,235.31 -405.60,236.17 -404.74,236.96 -403.81,237.66 -402.80,238.24 -401.73,238.70 -400.62,239.03 -399.47,239.22 -398.31,239.29 -397.14,239.23 -395.99,239.07 -393.73,238.50 -391.56,237.65 -389.48,236.61 -388.46,236.03"/>
    </edge>
    <edge id=":148_7" function="internal">
        <lane id=":148_7_0" index="0" disallow="pedestrian tram rail_urban rail rail_electric rail_fast ship" speed="36.11" length="40.17" width="3.50" shape="-410.93,225.95 -400.21,262.52 -399.65,264.50"/>
    </edge>
    <edge id=":148_8" function="internal">
        <lane id=":148_8_0" index="0" disallow="pedestrian tram rail_urban rail rail_electric rail_fast ship" speed="12.34" length="36.29" width="3.50" shape="-410.93,225.95 -409.97,229.86 -409.56,232.52 -409.39,235.20 -409.50,237.89 -409.97,240.54 -410.35,241.82 -410.84,243.08 -411.44,244.28 -412.15,245.43 -412.95,246.50 -413.85,247.51 -414.82,248.43 -416.97,250.04 -419.32,251.35 -421.79,252.40 -424.35,253.22 -425.66,253.56"/>
    </edge>
    <edge id=":148_9" function="internal">
        <lane id=":148_9_0" index="0" disallow="pedestrian tram rail_urban rail rail_electric rail_fast ship" speed="11.35" length="30.53" width="3.50" shape="-426.48,250.16 -425.36,249.87 -423.13,249.15 -421.02,248.26 -419.05,247.15 -417.25,245.80 -416.49,245.06 -415.77,244.25 -415.13,243.38 -414.57,242.46 -414.09,241.49 -413.70,240.47 -413.40,239.45 -413.02,237.23 -412.93,234.97 -413.09,232.67 -413.44,230.38 -414.29,226.93"/>
    </edge>
    <edge id=":148_10" function="internal">
        <lane id=":148_10_0" index="0" disallow="pedestrian tram rail_urban rail rail_electric rail_fast ship" speed="36.11" length="40.70" width="3.50" shape="-426.48,250.16 -418.57,248.10 -410.75,245.73 -404.03,243.36 -398.38,241.06 -392.89,238.47 -388.46,236.03"/>
    </edge>
    <edge id=":148_11" function="internal">
        <lane id=":148_11_0" index="0" disallow="pedestrian tram rail_urban rail rail_electric rail_fast ship" speed="12.50" length="34.51" width="3.50" shape="-426.48,250.16 -424.05,249.65 -420.38,249.18 -417.85,249.12 -415.31,249.31 -412.77,249.82 -410.34,250.68 -409.12,251.27 -407.98,251.94 -406.91,252.70 -405.87,253.57 -404.10,255.45 -402.60,257.56 -401.39,259.80 -400.41,262.12 -399.65,264.50"/>
    </edge>
    <edge id=":149_0" function="internal">
        <lane id=":149_0_0" index="0" disallow="pedestrian tram rail_urban rail rail_electric rail_fast ship" speed="36.11" length="39.30" width="3.50" shape="-340.42,159.39 -341.05,164.53 -342.15,178.17 -342.86,184.52 -343.80,189.82 -344.85,194.03 -346.21,198.14"/>
    </edge>
    <edge id=":149_1" function="internal">
        <lane id=":149_1_0" index="0" disallow="pedestrian tram rail_urban rail rail_electric rail_fast ship" speed="13.09" length="34.80" width="3.50" shape="-340.42,159.39 -340.87,161.79 -341.54,164.17 -342.46,166.50 -343.65,168.72 -345.14,170.79 -346.91,172.63 -348.91,174.20 -351.09,175.49 -353.39,176.49 -355.75,177.24 -358.16,177.77 -361.76,178.21 -365.36,178.32"/>
    </edge>
    <edge id=":149_2" function="internal">
        <lane id=":149_2_0" index="0" disallow="pedestrian tram rail_urban rail rail_electric rail_fast ship" speed="12.14" length="29.81" width="3.50" shape="-365.39,174.82 -362.15,174.72 -358.99,174.34 -356.91,173.90 -354.88,173.27 -352.92,172.44 -351.08,171.37 -349.40,170.08 -347.91,168.56 -346.66,166.85 -345.64,164.98 -344.85,163.01 -344.27,160.96 -343.88,158.87"/>
    </edge>
    <edge id=":149_3" function="internal">
        <lane id=":149_3_0" index="0" disallow="pedestrian tram rail_urban rail rail_electric rail_fast ship" speed="11.42" length="38.44" width="3.50" shape="-365.39,174.82 -360.91,175.02 -357.98,175.38 -355.08,175.97 -352.27,176.88 -350.92,177.49 -349.63,178.20 -348.42,179.05 -347.32,180.04 -346.36,181.16 -345.56,182.40 -344.95,183.74 -344.52,185.15 -344.26,186.61 -344.16,188.08 -344.19,189.56 -344.57,192.49 -345.28,195.36 -346.21,198.14"/>
    </edge>
    <edge id=":149_4" function="internal">
        <lane id=":149_4_0" index="0" disallow="pedestrian tram rail_urban rail rail_electric rail_fast ship" speed="10.36" length="31.40" width="3.50" shape="-349.50,196.94 -348.69,194.52 -348.09,192.10 -347.79,189.65 -347.77,188.49 -347.87,187.33 -348.08,186.22 -348.42,185.16 -348.89,184.17 -349.49,183.26 -350.23,182.44 -351.08,181.70 -352.03,181.06 -353.06,180.50 -354.14,180.04 -356.51,179.29 -358.97,178.79 -361.49,178.49 -365.36,178.32"/>
    </edge>
    <edge id=":149_5" function="internal">
        <lane id=":149_5_0" index="0" disallow="pedestrian tram rail_urban rail rail_electric rail_fast ship" speed="36.11" length="38.60" width="3.50" shape="-349.50,196.94 -348.18,192.97 -347.17,188.92 -346.28,183.78 -345.59,177.57 -344.51,164.05 -343.88,158.87"/>
    </edge>
    <edge id=":150_0" function="internal">
        <lane id=":150_0_0" index="0" disallow="pedestrian tram rail_urban rail rail_electric rail_fast ship" speed="11.57" length="29.76" width="3.50" shape="-565.61,310.70 -565.98,309.65 -567.35,306.48 -568.44,304.54 -569.70,302.73 -571.16,301.11 -572.83,299.71 -573.69,299.15 -574.62,298.64 -575.58,298.20 -576.56,297.85 -578.68,297.36 -580.85,297.17 -583.05,297.24 -585.26,297.53 -588.60,298.32"/>
    </edge>
    <edge id=":150_1" function="internal">
        <lane id=":150_1_0" index="0" disallow="pedestrian tram rail_urban rail rail_electric rail_fast ship" speed="36.11" length="39.34" width="3.50" shape="-565.61,310.70 -570.82,294.97 -577.66,273.25"/>
    </edge>
    <edge id=":150_2" function="internal">
        <lane id=":150_2_0" index="0" disallow="pedestrian tram rail_urban rail rail_electric rail_fast ship" speed="12.06" length="34.67" width="3.50" shape="-565.61,310.70 -566.65,306.99 -567.11,304.41 -567.30,301.76 -567.16,299.11 -566.93,297.74 -566.60,296.40 -566.15,295.10 -565.57,293.84 -564.88,292.63 -564.09,291.50 -563.20,290.45 -562.21,289.46 -560.12,287.81 -557.84,286.44 -555.46,285.33 -551.81,284.08"/>
    </edge>
    <edge id=":150_3" function="internal">
        <lane id=":150_3_0" index="0" disallow="pedestrian tram rail_urban rail rail_electric rail_fast ship" speed="11.04" length="28.92" width="3.50" shape="-550.84,287.44 -554.00,288.53 -556.02,289.46 -557.92,290.61 -559.66,291.99 -560.45,292.78 -561.17,293.62 -561.81,294.53 -562.36,295.50 -562.82,296.51 -563.18,297.56 -563.45,298.64 -563.63,299.74 -563.75,301.96 -563.58,304.18 -563.20,306.37 -562.29,309.58"/>
    </edge>
    <edge id=":150_4" function="internal">
        <lane id=":150_4_0" index="0" disallow="pedestrian tram rail_urban rail rail_electric rail_fast ship" speed="36.11" length="39.30" width="3.50" shape="-550.84,287.44 -569.72,292.88 -588.60,298.32"/>
    </edge>
    <edge id=":150_5" function="internal">
        <lane id=":150_5_0" index="0" disallow="pedestrian tram rail_urban rail rail_electric rail_fast ship" speed="12.35" length="34.67" width="3.50" shape="-550.84,287.44 -554.59,288.32 -557.14,288.67 -559.70,288.78 -562.27,288.61 -564.78,288.09 -566.00,287.69 -567.18,287.20 -568.33,286.61 -569.41,285.92 -570.44,285.15 -572.30,283.39 -573.89,281.37 -575.24,279.18 -576.35,276.87 -577.66,273.25"/>
    </edge>
    <edge id=":150_6" function="internal">
        <lane id=":150_6_0" index="0" disallow="pedestrian tram rail_urban rail rail_electric rail_fast ship" speed="11.36" length="29.14" width="3.50" shape="-574.32,272.23 -573.17,275.39 -572.22,277.35 -571.09,279.20 -569.77,280.87 -568.22,282.34 -567.41,282.94 -566.53,283.49 -565.61,283.96 -564.65,284.36 -563.69,284.67 -561.59,285.11 -559.45,285.25 -557.27,285.15 -555.09,284.85 -551.81,284.08"/>
    </edge>
    <edge id=":150_7" function="internal">
        <lane id=":150_7_0" index="0" disallow="pedestrian tram rail_urban rail rail_electric rail_fast ship" speed="36.11" length="39.24" width="3.50" shape="-574.32,272.23 -567.49,293.89 -562.29,309.58"/>
    </edge>
    <edge id=":150_8" function="internal">
        <lane id=":150_8_0" index="0" disallow="pedestrian tram rail_urban rail rail_electric rail_fast ship" speed="12.12" length="34.12" width="3.50" shape="-574.32,272.23 -573.40,275.92 -573.04,278.48 -572.95,281.10 -573.19,283.71 -573.47,285.05 -573.85,286.35 -574.35,287.62 -574.95,288.84 -575.67,289.99 -576.48,291.08 -577.37,292.10 -578.36,293.05 -580.42,294.64 -582.66,295.98 -585.01,297.07 -588.60,298.32"/>
    </edge>
    <edge id=":150_9" function="internal">
        <lane id=":150_9_0" index="0" disallow="pedestrian tram rail_urban rail rail_electric rail_fast ship" speed="11.11" length="28.49" width="3.50" shape="-589.58,294.96 -586.47,293.88 -584.48,292.95 -582.60,291.84 -580.86,290.50 -580.08,289.74 -579.35,288.92 -578.69,288.04 -578.12,287.10 -577.63,286.12 -577.23,285.10 -576.92,284.05 -576.70,282.98 -576.49,280.80 -576.57,278.61 -576.87,276.44 -577.66,273.25"/>
    </edge>
    <edge id=":150_10" function="internal">
        <lane id=":150_10_0" index="0" disallow="pedestrian tram rail_urban rail rail_electric rail_fast ship" speed="36.11" length="39.31" width="3.50" shape="-589.58,294.96 -570.69,289.52 -551.81,284.08"/>
    </edge>
    <edge id=":150_11" function="internal">
        <lane id=":150_11_0" index="0" disallow="pedestrian tram rail_urban rail rail_electric rail_fast ship" speed="12.55" length="35.18" width="3.50" shape="-589.58,294.96 -585.77,294.06 -583.19,293.72 -580.58,293.64 -577.99,293.86 -575.45,294.45 -574.22,294.88 -573.03,295.41 -571.89,296.04 -570.80,296.76 -568.80,298.43 -567.06,300.36 -565.56,302.49 -564.28,304.77 -562.73,308.35 -562.29,309.58"/>
    </edge>
    <edge id=":151_0" function="internal">
        <lane id=":151_0_0" index="0" disallow="pedestrian tram rail_urban rail rail_electric rail_fast ship" speed="11.66" length="29.62" width="3.50" shape="-420.66,205.10 -421.78,201.84 -422.69,199.80 -423.78,197.87 -425.04,196.09 -426.49,194.50 -428.16,193.12 -429.02,192.57 -429.95,192.07 -430.89,191.65 -432.95,191.00 -435.08,190.64 -437.27,190.54 -439.47,190.67 -442.83,191.21"/>
    </edge>
    <edge id=":151_1" function="internal">
        <lane id=":151_1_0" index="0" disallow="pedestrian tram rail_urban rail rail_electric rail_fast ship" speed="36.11" length="40.49" width="3.50" shape="-420.66,205.10 -423.12,196.06 -425.22,186.96 -426.98,177.79 -428.39,168.56 -428.79,165.48"/>
    </edge>
    <edge id=":151_2" function="internal">
        <lane id=":151_2_0" index="0" disallow="pedestrian tram rail_urban rail rail_electric rail_fast ship" speed="11.90" length="34.79" width="3.50" shape="-420.66,205.10 -421.59,201.17 -421.94,198.52 -422.00,195.85 -421.71,193.20 -421.42,191.89 -421.01,190.62 -420.48,189.40 -419.84,188.22 -419.09,187.12 -418.23,186.09 -417.29,185.15 -416.27,184.28 -414.05,182.80 -411.65,181.62 -409.15,180.68 -405.24,179.66"/>
    </edge>
    <edge id=":151_3" function="internal">
        <lane id=":151_3_0" index="0" disallow="pedestrian tram rail_urban rail rail_electric rail_fast ship" speed="10.88" length="28.90" width="3.50" shape="-404.53,183.09 -407.93,183.98 -410.05,184.77 -412.06,185.76 -413.91,186.99 -414.71,187.67 -415.46,188.42 -416.14,189.24 -416.73,190.11 -417.24,191.03 -417.66,192.00 -417.98,193.01 -418.22,194.02 -418.46,196.23 -418.41,198.46 -418.12,200.70 -417.30,204.12"/>
    </edge>
    <edge id=":151_4" function="internal">
        <lane id=":151_4_0" index="0" disallow="pedestrian tram rail_urban rail rail_electric rail_fast ship" speed="36.11" length="39.15" width="3.50" shape="-404.53,183.09 -423.69,187.15 -442.83,191.21"/>
    </edge>
    <edge id=":151_5" function="internal">
        <lane id=":151_5_0" index="0" disallow="pedestrian tram rail_urban rail rail_electric rail_fast ship" speed="12.02" length="35.12" width="3.50" shape="-404.53,183.09 -408.56,183.72 -411.25,183.86 -413.95,183.71 -416.60,183.20 -417.89,182.79 -419.13,182.27 -420.33,181.64 -421.45,180.89 -422.50,180.04 -423.46,179.09 -424.33,178.06 -425.10,176.95 -426.40,174.59 -427.38,172.07 -428.10,169.47 -428.79,165.48"/>
    </edge>
    <edge id=":151_6" function="internal">
        <lane id=":151_6_0" index="0" disallow="pedestrian tram rail_urban rail rail_electric rail_fast ship" speed="11.00" length="29.23" width="3.50" shape="-425.32,165.04 -424.72,168.53 -424.11,170.74 -423.28,172.85 -422.20,174.83 -421.59,175.70 -420.90,176.53 -420.14,177.28 -419.32,177.96 -418.43,178.54 -417.49,179.04 -416.50,179.46 -415.49,179.78 -413.29,180.20 -411.03,180.33 -408.75,180.21 -405.24,179.66"/>
    </edge>
    <edge id=":151_7" function="internal">
        <lane id=":151_7_0" index="0" disallow="pedestrian tram rail_urban rail rail_electric rail_fast ship" speed="36.11" length="39.94" width="3.50" shape="-425.32,165.04 -424.93,168.09 -423.53,177.20 -421.80,186.24 -419.72,195.21 -417.30,204.12"/>
    </edge>
    <edge id=":151_8" function="internal">
        <lane id=":151_8_0" index="0" disallow="pedestrian tram rail_urban rail rail_electric rail_fast ship" speed="12.84" length="35.32" width="3.50" shape="-425.32,165.04 -425.09,167.50 -425.05,171.17 -425.27,173.66 -425.73,176.14 -426.48,178.58 -427.53,180.92 -428.92,183.10 -430.61,185.07 -432.55,186.76 -434.67,188.17 -436.92,189.32 -439.26,190.23 -442.83,191.21"/>
    </edge>
    <edge id=":151_9" function="internal">
        <lane id=":151_9_0" index="0" disallow="pedestrian tram rail_urban rail rail_electric rail_fast ship" speed="11.88" length="30.08" width="3.50" shape="-443.58,187.80 -440.46,186.94 -438.46,186.15 -436.55,185.18 -434.76,183.98 -433.15,182.56 -431.76,180.93 -430.62,179.11 -429.74,177.15 -429.12,175.09 -428.73,172.98 -428.55,170.84 -428.59,167.62 -428.79,165.48"/>
    </edge>
    <edge id=":151_10" function="internal">
        <lane id=":151_10_0" index="0" disallow="pedestrian tram rail_urban rail rail_electric rail_fast ship" speed="36.11" length="39.19" width="3.50" shape="-443.58,187.79 -424.42,183.73 -405.24,179.66"/>
    </edge>
    <edge id=":151_11" function="internal">
        <lane id=":151_11_0" index="0" disallow="pedestrian tram rail_urban rail rail_electric rail_fast ship" speed="12.63" length="34.95" width="3.50" shape="-443.58,187.79 -439.74,187.17 -437.16,187.02 -434.58,187.14 -432.03,187.56 -429.56,188.33 -428.37,188.85 -427.24,189.46 -426.15,190.16 -424.15,191.80 -422.40,193.70 -420.90,195.81 -419.63,198.06 -418.57,200.42 -417.30,204.12"/>
    </edge>