<routes>
	<vehicle depart="0.1" departLane="1" departPos="133.95691468154314" departSpeed="11.2319" id="8" type="passenger">
		<route edges="64"/>
	</vehicle>
	<vehicle depart="0.1" departLane="2" departPos="124.50449211154317" departSpeed="13.713" id="9" type="passenger">
		<route edges="64"/>
	</vehicle>
	<vehicle depart="0.1" departLane="4" departPos="119.90881727356336" departSpeed="14.542" id="10" type="passenger">
		<route edges="64"/>
	</vehicle>
	<vehicle depart="0.1" departLane="4" departPos="101.11337809254597" departSpeed="13.716" id="12" type="passenger">
		<route edges="64"/>
	</vehicle>
	<vehicle depart="0.1" departLane="3" departPos="123.81904965903277" departSpeed="12.5242" id="13" type="passenger">
		<route edges="64"/>
	</vehicle>
	<vehicle depart="0.1" departLane="0" departPos="129.44331661548082" departSpeed="11.5946" id="14" type="passenger">
		<route edges="64"/>
	</vehicle>
	<vehicle depart="0.1" departLane="0" departPos="101.57806090238228" departSpeed="11.555" id="18" type="passenger">
		<route edges="64"/>
	</vehicle>
	<vehicle depart="0.1" departLane="2" departPos="84.68039015367445" departSpeed="13.1552" id="20" type="passenger">
		<route edges="64"/>
	</vehicle>
	<vehicle depart="0.1" departLane="1" departPos="111.36783414688838" departSpeed="12.9296" id="21" type="passenger">
		<route edges="64"/>
	</vehicle>
	<vehicle depart="0.1" departLane="3" departPos="101.2387903561446" departSpeed="11.7714" id="22" type="passenger">
		<route edges="64"/>
	</vehicle>
	<vehicle depart="0.1" departLane="4" departPos="82.28832247440918" departSpeed="12.6675" id="23" type="passenger">
		<route edges="64"/>
	</vehicle>
	<vehicle depart="0.1" departLane="1" departPos="80.53991052732917" departSpeed="13.7008" id="25" type="passenger">
		<route edges="64"/>
	</vehicle>
	<vehicle depart="0.1" departLane="3" departPos="85.18033199880642" departSpeed="11.0429" id="26" type="passenger">
		<route edges="64"/>
	</vehicle>
	<vehicle depart="0.1" departLane="4" departPos="56.68092111752342" departSpeed="12.3505" id="27" type="passenger">
		<route edges="64"/>
	</vehicle>
	<vehicle depart="0.1" departLane="0" departPos="81.2864912537175" departSpeed="11.4391" id="31" type="passenger">
		<route edges="64"/>
	</vehicle>
	<vehicle depart="0.1" departLane="3" departPos="70.4220551099423" departSpeed="10.5644" id="32" type="passenger">
		<route edges="64"/>
	</vehicle>
	<vehicle depart="0.1" departLane="1" departPos="62.039350281629176" departSpeed="13.7983" id="34" type="passenger">
		<route edges="64"/>
	</vehicle>
	<vehicle depart="0.1" departLane="0" departPos="60.8796358068617" departSpeed="9.8542" id="35" type="passenger">
		<route edges="64"/>
	</vehicle>
	<vehicle depart="0.1" departLane="4" departPos="44.89034436596759" departSpeed="12.3505" id="39" type="passenger">
		<route edges="64"/>
	</vehicle>
	<vehicle depart="0.1" departLane="1" departPos="43.814069266069865" departSpeed="13.8349" id="40" type="passenger">
		<route edges="64"/>
	</vehicle>
	<vehicle depart="0.1" departLane="4" departPos="27.832655177798465" departSpeed="12.1615" id="43" type="passenger">
		<route edges="64"/>
	</vehicle>
	<vehicle depart="0.1" departLane="2" departPos="35.8828763974806" departSpeed="11.0764" id="47" type="passenger">
		<route edges="64"/>
	</vehicle>
	<vehicle depart="0.1" departLane="0" departPos="52.40020217941655" departSpeed="9.144" id="48" type="passenger">
		<route edges="64"/>
	</vehicle>
	<vehicle depart="0.1" departLane="1" departPos="0" departSpeed="15.2309" id="51" type="passenger">
		<route edges="64"/>
	</vehicle>
	<vehicle depart="0.1" departLane="0" departPos="0" departSpeed="10.0523" id="53" type="passenger">
		<route edges="64"/>
	</vehicle>
	<vehicle depart="0.1" departLane="3" departPos="11.88129134304392" departSpeed="11.0886" id="56" type="passenger">
		<route edges="64"/>
	</vehicle>
	<vehicle depart="0.1" departLane="0" departPos="0" departSpeed="12.192" id="60" type="passenger">
		<route edges="64"/>
	</vehicle>
</routes>
