<routes>
	<vehicle depart="0.1" departLane="0" departPos="15.820597804644368" departSpeed="0.80061461" id="310" type="passenger">
		<route edges=":28_3 1728"/>
	</vehicle>
	<vehicle depart="0.1" departLane="0" departPos="26.511085282669974" departSpeed="9.3678574" id="311" type="passenger">
		<route edges=":28_1 2302"/>
	</vehicle>
	<vehicle depart="0.1" departLane="0" departPos="63.35542423171024" departSpeed="1.5836611" id="323" type="passenger">
		<route edges="1731 1728"/>
	</vehicle>
	<vehicle depart="0.1" departLane="0" departPos="22.244544270023717" departSpeed="0.51932493" id="34" type="motorcycle">
		<route edges=":28_3 1728"/>
	</vehicle>
	<vehicle depart="0.1" departLane="0" departPos="33.64025559527577" departSpeed="1.5457496" id="329" type="motorcycle">
		<route edges="1729 1732"/>
	</vehicle>
	<vehicle depart="0.1" departLane="0" departPos="32.54931965067297" departSpeed="0.56173689" id="319" type="truck">
		<route edges=":28_3 1728"/>
	</vehicle>
	<vehicle depart="0.1" departLane="0" departPos="8.484044514205516" departSpeed="0.4866561" id="321" type="truck">
		<route edges=":28_3 1728"/>
	</vehicle>
</routes>
