<routes>
	<vehicle depart="0.1" departLane="0" departPos="65.49812102282598" departSpeed="2.0630517" id="33" type="passenger">
		<route edges="12157 12183"/>
	</vehicle>
	<vehicle depart="0.1" departLane="0" departPos="58.02865894506072" departSpeed="0.96071608" id="37" type="passenger">
		<route edges="12157 12183"/>
	</vehicle>
	<vehicle depart="0.1" departLane="0" departPos="49.96084815361292" departSpeed="1.403187" id="39" type="passenger">
		<route edges="12157 12183"/>
	</vehicle>
	<vehicle depart="0.1" departLane="0" departPos="39.91126192982244" departSpeed="0.51148081" id="315" type="passenger">
		<route edges="12157 12183"/>
	</vehicle>
	<vehicle depart="0.1" departLane="0" departPos="26.264565046097196" departSpeed="0.42904357" id="319" type="passenger">
		<route edges="12157 12183"/>
	</vehicle>
	<vehicle depart="0.1" departLane="0" departPos="35.8469153342856" departSpeed="13.850126" id="324" type="passenger">
		<route edges=":9_2 12158"/>
	</vehicle>
	<vehicle depart="0.1" departLane="0" departPos="24.13985572392318" departSpeed="10.491493" id="325" type="passenger">
		<route edges=":9_1 12183"/>
	</vehicle>
	<vehicle depart="0.1" departLane="0" departPos="13.92836793029367" departSpeed="8.2920169" id="327" type="passenger">
		<route edges=":9_1 12183"/>
	</vehicle>
	<vehicle depart="0.1" departLane="0" departPos="3.75" departSpeed="2.2982596" id="30" type="truck">
		<route edges=":9_0 12183"/>
	</vehicle>
	<vehicle depart="0.1" departLane="0" departPos="47.57759587538042" departSpeed="9.8212825" id="329" type="truck">
		<route edges="12181 12158"/>
	</vehicle>
</routes>
