<routes>
	<vehicle depart="0.1" departLane="0" departPos="59.13915005116379" departSpeed="0.049785045" id="36" type="passenger">
		<route edges="44823 45220"/>
	</vehicle>
	<vehicle depart="0.1" departLane="0" departPos="19.29745039782141" departSpeed="7.6452564" id="310" type="passenger">
		<route edges=":34_0 44773"/>
	</vehicle>
	<vehicle depart="0.1" departLane="0" departPos="71.4401577965043" departSpeed="0.020972675" id="322" type="passenger">
		<route edges="44823 45220"/>
	</vehicle>
	<vehicle depart="0.1" departLane="0" departPos="7.4437705471493425" departSpeed="15.65388" id="337" type="passenger">
		<route edges=":37_1 44780"/>
	</vehicle>
	<vehicle depart="0.1" departLane="0" departPos="24.788238365585354" departSpeed="10.404609" id="347" type="passenger">
		<route edges=":36_4 44774 44777"/>
	</vehicle>
	<vehicle depart="0.1" departLane="0" departPos="63.89438815191685" departSpeed="0.045748815" id="33" type="motorcycle">
		<route edges="44823 45220"/>
	</vehicle>
	<vehicle depart="0.1" departLane="0" departPos="11.207266860555647" departSpeed="0.0" id="321" type="truck">
		<route edges=":35_0 45220"/>
	</vehicle>
</routes>
