<routes>
	<vehicle depart="0.1" departLane="0" departPos="13.281882165825614" departSpeed="0.8352043" id="31" type="passenger">
		<route edges="70826 70910"/>
	</vehicle>
	<vehicle depart="0.1" departLane="0" departPos="9.907522102253287" departSpeed="7.8097068" id="32" type="passenger">
		<route edges=":75_2 70910 70775"/>
	</vehicle>
	<vehicle depart="0.1" departLane="0" departPos="15.861208399139038" departSpeed="6.8077065" id="34" type="passenger">
		<route edges=":74_4 70903 70938 70935"/>
	</vehicle>
	<vehicle depart="0.1" departLane="0" departPos="15.32474435619451" departSpeed="1.356745" id="314" type="passenger">
		<route edges=":75_4 70906"/>
	</vehicle>
	<vehicle depart="0.1" departLane="0" departPos="14.557573735852909" departSpeed="4.4502194" id="325" type="passenger">
		<route edges=":74_1 70903 71013"/>
	</vehicle>
	<vehicle depart="0.1" departLane="0" departPos="32.849354651866825" departSpeed="0.87358302" id="332" type="passenger">
		<route edges=":75_1 70906 70903"/>
	</vehicle>
	<vehicle depart="0.1" departLane="0" departPos="23.205779859184542" departSpeed="3.264849" id="335" type="passenger">
		<route edges=":75_1 70906"/>
	</vehicle>
	<vehicle depart="0.1" departLane="0" departPos="9.576877545661334" departSpeed="4.7975386" id="336" type="passenger">
		<route edges=":74_5 70907 70825"/>
	</vehicle>
	<vehicle depart="0.1" departLane="0" departPos="25.089237752423355" departSpeed="12.454944" id="352" type="passenger">
		<route edges=":77_7 70904 70907"/>
	</vehicle>
	<vehicle depart="0.1" departLane="0" departPos="16.192840607703133" departSpeed="0.53124418" id="330" type="motorcycle">
		<route edges=":75_1 70906"/>
	</vehicle>
</routes>
