<routes>
	<vehicle depart="0.1" departLane="1" departPos="105.39204334413856" departSpeed="11.33005" id="1" type="passenger">
		<route edges="26 28 24"/>
	</vehicle>
	<vehicle depart="0.1" departLane="0" departPos="0" departSpeed="11.180268" id="2" type="passenger">
		<route edges="26 27 24"/>
	</vehicle>
	<vehicle depart="0.1" departLane="0" departPos="0" departSpeed="11.180484" id="3" type="passenger">
		<route edges="26 26 28 24"/>
	</vehicle>
</routes>
