<routes>
	<vehicle depart="0.1" departLane="0" departPos="7.127391973513261" departSpeed="2.7438863" id="311" type="bicycle">
		<route edges=":33_0 68009"/>
	</vehicle>
	<vehicle depart="0.1" departLane="0" departPos="72.49123615025086" departSpeed="0.77933476" id="33" type="passenger">
		<route edges="67977 68006 68196"/>
	</vehicle>
	<vehicle depart="0.1" departLane="0" departPos="7.553314780560157" departSpeed="6.3710252" id="39" type="passenger">
		<route edges=":35_10 67976"/>
	</vehicle>
	<vehicle depart="0.1" departLane="0" departPos="67.54234825863043" departSpeed="4.8738509" id="316" type="passenger">
		<route edges="67177 68006 68196"/>
	</vehicle>
	<vehicle depart="0.1" departLane="0" departPos="42.064173972662445" departSpeed="0.98706756" id="324" type="passenger">
		<route edges="67177 67976"/>
	</vehicle>
	<vehicle depart="0.1" departLane="0" departPos="22.49271846455845" departSpeed="1.3952077" id="334" type="passenger">
		<route edges="67177 67976"/>
	</vehicle>
	<vehicle depart="0.1" departLane="0" departPos="47.952083689786576" departSpeed="2.2399693" id="320" type="motorcycle">
		<route edges="67177 67976"/>
	</vehicle>
	<vehicle depart="0.1" departLane="0" departPos="32.97300721859408" departSpeed="0.83691227" id="328" type="motorcycle">
		<route edges="67177 67976"/>
	</vehicle>
	<vehicle depart="0.1" departLane="0" departPos="60.518895071195864" departSpeed="0.29777918" id="337" type="motorcycle">
		<route edges=":33_2 68005 67976"/>
	</vehicle>
	<vehicle depart="0.1" departLane="0" departPos="7.753266760248714" departSpeed="0.0072237339" id="332" type="truck">
		<route edges=":35_8 67178"/>
	</vehicle>
</routes>
