<routes>
	<vehicle depart="0.1" departLane="0" departPos="6.857904033465086" departSpeed="0.94283963" id="320" type="passenger">
		<route edges=":33_1 21487"/>
	</vehicle>
	<vehicle depart="0.1" departLane="0" departPos="72.46094217349895" departSpeed="0.63138747" id="322" type="passenger">
		<route edges="20941 21487"/>
	</vehicle>
	<vehicle depart="0.1" departLane="0" departPos="18.10871846069811" departSpeed="17.050172" id="323" type="passenger">
		<route edges=":33_5 20942"/>
	</vehicle>
	<vehicle depart="0.1" departLane="0" departPos="63.72017969233978" departSpeed="0.0022794577" id="324" type="passenger">
		<route edges="20941 21487"/>
	</vehicle>
	<vehicle depart="0.1" departLane="0" departPos="55.71474518721587" departSpeed="0.49392487" id="326" type="passenger">
		<route edges="20941 21487"/>
	</vehicle>
	<vehicle depart="0.1" departLane="0" departPos="47.868715018457806" departSpeed="0.34566495" id="328" type="passenger">
		<route edges="20941 21487"/>
	</vehicle>
	<vehicle depart="0.1" departLane="0" departPos="33.71735473688243" departSpeed="0.81384763" id="330" type="passenger">
		<route edges="20941 21487"/>
	</vehicle>
	<vehicle depart="0.1" departLane="0" departPos="27.964158289363553" departSpeed="0.78966134" id="333" type="passenger">
		<route edges="20941 21487"/>
	</vehicle>
	<vehicle depart="0.1" departLane="0" departPos="15.372706555665397" departSpeed="0.49852385" id="30" type="truck">
		<route edges="21488 20938"/>
	</vehicle>
</routes>
