<routes>
	<vehicle depart="0.1" departLane="0" departPos="13.441024558380771" departSpeed="0.019705891" id="36" type="passenger">
		<route edges="20935 20834"/>
	</vehicle>
	<vehicle depart="0.1" departLane="0" departPos="13.220573149465272" departSpeed="1.787663" id="39" type="passenger">
		<route edges=":34_3 20935"/>
	</vehicle>
	<vehicle depart="0.1" departLane="0" departPos="7.00072333663393" departSpeed="14.911563" id="323" type="passenger">
		<route edges="20939 20942"/>
	</vehicle>
	<vehicle depart="0.1" departLane="0" departPos="15.022258610794648" departSpeed="12.562399" id="325" type="passenger">
		<route edges=":34_5 20939 21487"/>
	</vehicle>
	<vehicle depart="0.1" departLane="0" departPos="8.312272864402923" departSpeed="12.793888" id="327" type="passenger">
		<route edges="20936 20939"/>
	</vehicle>
	<vehicle depart="0.1" departLane="0" departPos="19.708217755359463" departSpeed="1.4600746" id="30" type="truck">
		<route edges=":33_3 20938 20935"/>
	</vehicle>
</routes>
