<!-- generated on Tue Feb  9 22:19:43 2021 by Eclipse SUMO netconvert Version 1.8.0
<configuration xmlns:xsi="http://www.w3.org/2001/XMLSchema-instance" xsi:noNamespaceSchemaLocation="http://sumo.dlr.de/xsd/netconvertConfiguration.xsd">

    <input>
        <node-files value="./converted_scenarios/scenario-factory/DEU_Bilderstoeckchen-4_1_I-1-1/DEU_Bilderstoeckchen-4_1_I-1-1.nod.xml"/>
        <edge-files value="./converted_scenarios/scenario-factory/DEU_Bilderstoeckchen-4_1_I-1-1/DEU_Bilderstoeckchen-4_1_I-1-1.edg.xml"/>
        <connection-files value="./converted_scenarios/scenario-factory/DEU_Bilderstoeckchen-4_1_I-1-1/DEU_Bilderstoeckchen-4_1_I-1-1.con.xml"/>
        <tllogic-files value="./converted_scenarios/scenario-factory/DEU_Bilderstoeckchen-4_1_I-1-1/DEU_Bilderstoeckchen-4_1_I-1-1.tll.xml"/>
        <type-files value="/home/zen/commonroad-interactive-benchmarks/install/commonroad-map-tool/crmapconverter/sumo_map/templates/DEU.typ.xml"/>
    </input>

    <output>
        <output-file value="./converted_scenarios/scenario-factory/DEU_Bilderstoeckchen-4_1_I-1-1/DEU_Bilderstoeckchen-4_1_I-1-1.net.xml"/>
    </output>

    <processing>
        <geometry.remove.keep-edges.explicit value="true"/>
        <geometry.avoid-overlap value="true"/>
        <offset.disable-normalization value="true"/>
    </processing>

    <junctions>
        <no-turnarounds value="true"/>
        <junctions.internal-link-detail value="20"/>
    </junctions>

    <report>
        <aggregate-warnings value="5"/>
    </report>

    <random_number>
        <seed value="1234"/>
    </random_number>

</configuration>
--><net xmlns:xsi="http://www.w3.org/2001/XMLSchema-instance" version="1.6" junctionCornerDetail="5" junctionLinkDetail="20" limitTurnSpeed="5.50" xsi:noNamespaceSchemaLocation="http://sumo.dlr.de/xsd/net_file.xsd">

    <location netOffset="0.00,0.00" convBoundary="-483.48,130.46,-244.06,310.13" origBoundary="-483.48,130.46,-244.06,310.13" projParameter="!"/>

    <type id="highway.bridleway" priority="1" speed="2.78" allow="pedestrian" oneway="1" width="2.00"/>
    <type id="highway.bus_guideway" priority="1" speed="27.78" allow="bus" oneway="1"/>
    <type id="highway.cycleway" priority="1" speed="8.33" allow="bicycle" oneway="0" width="1.00"/>
    <type id="highway.footway" priority="1" speed="2.78" allow="pedestrian" oneway="1" width="2.00"/>
    <type id="highway.ford" priority="1" speed="2.78" allow="army" oneway="0"/>
    <type id="highway.living_street" priority="2" speed="2.78" disallow="tram rail_urban rail rail_electric rail_fast ship" oneway="0"/>
    <type id="highway.motorway" priority="14" speed="39.44" allow="private emergency authority army vip passenger hov taxi bus coach delivery truck trailer motorcycle evehicle custom1 custom2" oneway="1"/>
    <type id="highway.motorway_link" priority="9" speed="22.22" allow="private emergency authority army vip passenger hov taxi bus coach delivery truck trailer motorcycle evehicle custom1 custom2" oneway="1"/>
    <type id="highway.path" priority="1" speed="2.78" allow="pedestrian bicycle" oneway="0" width="2.00"/>
    <type id="highway.pedestrian" priority="1" speed="2.78" allow="pedestrian" oneway="1" width="2.00"/>
    <type id="highway.primary" priority="12" speed="27.78" disallow="pedestrian tram rail_urban rail rail_electric rail_fast ship" oneway="0"/>
    <type id="highway.primary_link" priority="7" speed="22.22" disallow="pedestrian tram rail_urban rail rail_electric rail_fast ship" oneway="0"/>
    <type id="highway.raceway" priority="15" speed="83.33" allow="vip" oneway="0"/>
    <type id="highway.residential" priority="3" speed="13.89" disallow="pedestrian tram rail_urban rail rail_electric rail_fast ship" oneway="0"/>
    <type id="highway.secondary" priority="11" speed="27.78" disallow="pedestrian tram rail_urban rail rail_electric rail_fast ship" oneway="0"/>
    <type id="highway.secondary_link" priority="6" speed="22.22" disallow="pedestrian tram rail_urban rail rail_electric rail_fast ship" oneway="0"/>
    <type id="highway.service" priority="1" speed="5.56" allow="pedestrian delivery bicycle" oneway="0"/>
    <type id="highway.stairs" priority="1" speed="1.39" allow="pedestrian" oneway="1" width="2.00"/>
    <type id="highway.step" priority="1" speed="1.39" allow="pedestrian" oneway="1" width="2.00"/>
    <type id="highway.steps" priority="1" speed="1.39" allow="pedestrian" oneway="1" width="2.00"/>
    <type id="highway.tertiary" priority="10" speed="22.22" disallow="pedestrian tram rail_urban rail rail_electric rail_fast ship" oneway="0"/>
    <type id="highway.tertiary_link" priority="5" speed="22.22" disallow="pedestrian tram rail_urban rail rail_electric rail_fast ship" oneway="0"/>
    <type id="highway.track" priority="1" speed="5.56" allow="pedestrian motorcycle moped bicycle" oneway="0"/>
    <type id="highway.trunk" priority="13" speed="27.78" disallow="pedestrian bicycle tram rail_urban rail rail_electric rail_fast ship" oneway="0"/>
    <type id="highway.trunk_link" priority="8" speed="22.22" disallow="pedestrian bicycle tram rail_urban rail rail_electric rail_fast ship" oneway="0"/>
    <type id="highway.unclassified" priority="4" speed="13.89" disallow="pedestrian tram rail_urban rail rail_electric rail_fast ship" oneway="0"/>
    <type id="highway.unsurfaced" priority="1" speed="8.33" disallow="tram rail_urban rail rail_electric rail_fast ship" oneway="0"/>
    <type id="railway.highspeed" priority="21" speed="69.44" allow="rail_fast" oneway="1"/>
    <type id="railway.light_rail" priority="19" speed="27.78" allow="rail_urban" oneway="1"/>
    <type id="railway.preserved" priority="16" speed="27.78" allow="rail" oneway="1"/>
    <type id="railway.rail" priority="20" speed="44.44" allow="rail" oneway="1"/>
    <type id="railway.subway" priority="18" speed="27.78" allow="rail_urban" oneway="1"/>
    <type id="railway.tram" priority="17" speed="13.89" allow="tram" oneway="1"/>

    <edge id=":34_0" function="internal">
        <lane id=":34_0_0" index="0" disallow="pedestrian tram rail_urban rail rail_electric rail_fast ship" speed="36.11" length="14.99" width="3.50" shape="-421.54,184.57 -428.77,178.07 -432.86,174.75"/>
    </edge>
    <edge id=":34_1" function="internal">
        <lane id=":34_1_0" index="0" disallow="pedestrian tram rail_urban rail rail_electric rail_fast ship" speed="36.11" length="15.22" width="3.50" shape="-430.15,171.68 -426.69,176.33 -425.12,177.71 -420.37,180.99 -419.17,181.99"/>
    </edge>
    <edge id=":35_0" function="internal">
        <lane id=":35_0_0" index="0" disallow="pedestrian tram rail_urban rail rail_electric rail_fast ship" speed="36.11" length="38.73" width="3.50" shape="-387.73,208.40 -397.26,203.39 -415.50,193.34 -421.87,190.13"/>
    </edge>
    <edge id=":35_1" function="internal">
        <lane id=":35_1_0" index="0" disallow="pedestrian tram rail_urban rail rail_electric rail_fast ship" speed="36.11" length="41.26" width="3.50" shape="-387.73,208.40 -393.41,205.38 -399.74,201.57 -405.86,197.43 -411.76,192.99 -417.44,188.26 -421.36,184.73"/>
    </edge>
    <edge id=":35_2" function="internal">
        <lane id=":35_2_0" index="0" disallow="pedestrian tram rail_urban rail rail_electric rail_fast ship" speed="36.11" length="40.18" width="3.50" shape="-418.99,182.16 -415.15,185.62 -409.60,190.24 -403.84,194.58 -397.87,198.62 -391.69,202.33 -386.25,205.23"/>
    </edge>
    <edge id=":36_0" function="internal">
        <lane id=":36_0_0" index="0" disallow="pedestrian tram rail_urban rail rail_electric rail_fast ship" speed="11.75" length="28.28" width="3.50" shape="-306.83,221.86 -310.11,222.36 -312.22,222.89 -314.26,223.62 -316.22,224.57 -318.03,225.77 -319.64,227.22 -321.02,228.89 -322.13,230.76 -322.98,232.76 -323.57,234.85 -323.95,236.99 -324.17,240.23"/>
    </edge>
    <edge id=":36_1" function="internal">
        <lane id=":36_1_0" index="0" disallow="pedestrian tram rail_urban rail rail_electric rail_fast ship" speed="36.11" length="38.09" width="3.50" shape="-306.83,221.87 -316.33,222.63 -324.76,222.96 -332.15,222.90 -338.50,222.55 -344.83,221.84"/>
    </edge>
    <edge id=":36_2" function="internal">
        <lane id=":36_2_0" index="0" disallow="pedestrian tram rail_urban rail rail_electric rail_fast ship" speed="36.11" length="37.11" width="3.50" shape="-344.32,218.38 -338.17,219.06 -331.99,219.41 -324.76,219.46 -316.50,219.14 -307.29,218.40"/>
    </edge>
    <edge id=":36_3" function="internal">
        <lane id=":36_3_0" index="0" disallow="pedestrian tram rail_urban rail rail_electric rail_fast ship" speed="12.70" length="33.16" width="3.50" shape="-344.32,218.38 -340.57,219.10 -338.11,219.79 -335.73,220.70 -333.45,221.85 -331.33,223.27 -329.42,224.96 -327.78,226.91 -326.45,229.09 -325.45,231.44 -324.76,233.89 -324.35,236.41 -324.18,238.96 -324.17,240.23"/>
    </edge>
    <edge id=":36_4" function="internal">
        <lane id=":36_4_0" index="0" disallow="pedestrian tram rail_urban rail rail_electric rail_fast ship" speed="11.72" length="28.09" width="3.50" shape="-327.67,240.20 -327.68,239.10 -327.82,236.89 -328.18,234.75 -328.76,232.69 -329.60,230.75 -330.69,228.96 -332.04,227.37 -333.63,225.98 -335.41,224.81 -337.34,223.85 -339.39,223.07 -341.51,222.47 -344.83,221.84"/>
    </edge>
    <edge id=":36_5" function="internal">
        <lane id=":36_5_0" index="0" disallow="pedestrian tram rail_urban rail rail_electric rail_fast ship" speed="12.72" length="33.34" width="3.50" shape="-327.67,240.20 -327.41,236.45 -326.97,233.94 -326.27,231.47 -325.26,229.07 -323.92,226.82 -322.25,224.78 -320.29,223.02 -318.12,221.57 -315.80,220.43 -313.39,219.57 -310.93,218.95 -307.29,218.40"/>
    </edge>
    <edge id=":37_0" function="internal">
        <lane id=":37_0_0" index="0" disallow="pedestrian tram rail_urban rail rail_electric rail_fast ship" speed="7.13" length="8.17" width="3.50" shape="-464.76,156.19 -466.70,155.45 -469.70,154.61 -472.27,154.22 -472.65,154.22"/>
    </edge>
    <edge id=":37_1" function="internal">
        <lane id=":37_1_0" index="0" disallow="pedestrian tram rail_urban rail rail_electric rail_fast ship" speed="11.85" length="20.33" width="3.50" shape="-462.98,154.08 -463.18,153.89 -463.37,153.59 -463.53,153.20 -463.66,152.72 -463.78,152.14 -463.87,151.47 -463.93,150.70 -463.97,149.83 -463.99,148.87 -463.99,147.81 -463.96,146.66 -463.91,145.41 -463.83,144.07 -463.73,142.63 -463.61,141.10 -463.47,139.47 -463.30,137.74 -463.10,135.92 -462.89,134.01"/>
    </edge>
    <edge id=":37_2" function="internal">
        <lane id=":37_2_0" index="0" disallow="pedestrian tram rail_urban rail rail_electric rail_fast ship" speed="5.14" length="5.40" width="3.50" shape="-455.65,139.73 -455.85,140.87 -455.85,142.62 -455.55,144.34 -455.32,145.05"/>
    </edge>
    <edge id=":37_3" function="internal">
        <lane id=":37_3_0" index="0" disallow="pedestrian tram rail_urban rail rail_electric rail_fast ship" speed="11.65" length="12.02" width="3.50" shape="-468.42,142.27 -468.18,142.34 -465.39,143.60 -461.86,145.65 -458.04,148.26"/>
    </edge>
    <edge id=":39_0" function="internal">
        <lane id=":39_0_0" index="0" disallow="pedestrian tram rail_urban rail rail_electric rail_fast ship" speed="16.24" length="13.34" width="3.50" shape="-434.90,160.28 -433.98,163.14 -432.21,167.39 -430.33,171.03 -429.46,172.41"/>
    </edge>
    <edge id=":39_1" function="internal">
        <lane id=":39_1_0" index="0" disallow="pedestrian tram rail_urban rail rail_electric rail_fast ship" speed="36.11" length="14.93" width="3.50" shape="-440.69,162.44 -435.41,167.13 -430.57,171.80 -429.81,172.65"/>
    </edge>

    <edge id="30919" from="33" to="39" priority="3" type="highway.residential" spreadType="center" length="22.60">
        <lane id="30919_0" index="0" disallow="pedestrian tram rail_urban rail rail_electric rail_fast ship" speed="36.11" length="22.60" width="3.49" customShape="1" shape="-438.44,137.88 -438.06,142.87 -438.06,142.99 -436.74,160.42"/>
    </edge>
    <edge id="30938" from="35" to="5" priority="3" type="highway.residential" spreadType="center" length="50.70">
        <lane id="30938_0" index="0" disallow="pedestrian tram rail_urban rail rail_electric rail_fast ship" speed="36.11" length="50.70" width="3.50" customShape="1" shape="-421.72,189.76 -434.38,184.60 -437.77,183.53 -441.74,182.69 -455.81,180.73 -464.35,179.58 -469.92,179.15 -470.93,179.12"/>
    </edge>
    <edge id="30940" from="36" to="35" priority="3" type="highway.residential" spreadType="center" length="45.11" shape="-326.49,228.45 -409.38,195.06">
        <lane id="30940_0" index="0" disallow="pedestrian tram rail_urban rail rail_electric rail_fast ship" speed="36.11" length="45.11" width="3.50" customShape="1" shape="-344.83,221.84 -347.87,221.37 -354.43,220.07 -361.89,218.17 -367.30,216.51 -374.99,213.59 -382.70,210.74 -387.73,208.40"/>
    </edge>
    <edge id="30941" from="35" to="36" priority="3" type="highway.residential" spreadType="center" length="44.12" shape="-408.07,191.81 -325.18,225.21">
        <lane id="30941_0" index="0" disallow="pedestrian tram rail_urban rail rail_electric rail_fast ship" speed="36.11" length="44.12" width="3.50" customShape="1" shape="-386.25,205.23 -381.30,207.53 -373.75,210.32 -366.20,213.19 -360.96,214.80 -353.67,216.66 -347.28,217.92 -344.30,218.38"/>
    </edge>
    <edge id="30943" from="30" to="36" priority="3" type="highway.residential" spreadType="center" length="70.00" shape="-244.06,194.27 -325.22,228.44">
        <lane id="30943_0" index="0" disallow="pedestrian tram rail_urban rail rail_electric rail_fast ship" speed="36.11" length="70.00" width="3.50" customShape="1" shape="-244.06,194.27 -250.17,199.51 -254.89,203.27 -258.63,205.84 -264.26,209.17 -270.07,212.19 -275.59,214.65 -281.26,216.76 -286.56,218.36 -291.96,219.61 -299.40,220.89 -306.90,221.87"/>
    </edge>
    <edge id="30944" from="36" to="16" priority="3" type="highway.residential" spreadType="center" length="70.01" shape="-326.58,225.22 -244.77,190.22">
        <lane id="30944_0" index="0" disallow="pedestrian tram rail_urban rail rail_electric rail_fast ship" speed="36.11" length="70.01" width="3.50" customShape="1" shape="-307.29,218.40 -299.87,217.42 -292.53,216.16 -287.26,214.93 -282.09,213.35 -276.56,211.26 -271.17,208.84 -265.49,205.84 -259.99,202.55 -256.39,200.02 -251.78,196.29 -244.99,190.43 -244.77,190.22"/>
    </edge>
    <edge id="31019" from="36" to="17" priority="3" type="highway.residential" spreadType="center" length="70.01" shape="-324.12,226.84 -327.24,310.13">
        <lane id="31019_0" index="0" disallow="pedestrian tram rail_urban rail rail_electric rail_fast ship" speed="36.11" length="70.01" width="3.50" customShape="1" shape="-324.17,240.23 -324.39,259.94 -324.79,277.63 -325.44,290.75 -326.41,302.84 -327.24,310.13"/>
    </edge>
    <edge id="31020" from="26" to="36" priority="3" type="highway.residential" spreadType="center" length="70.00" shape="-330.75,310.06 -327.61,226.71">
        <lane id="31020_0" index="0" disallow="pedestrian tram rail_urban rail rail_electric rail_fast ship" speed="36.11" length="70.00" width="3.50" customShape="1" shape="-330.75,310.06 -329.87,302.28 -328.92,290.32 -328.29,277.32 -327.89,259.78 -327.67,240.17"/>
    </edge>
    <edge id="31043" from="35" to="34" priority="3" type="highway.residential" spreadType="center" length="0.26" shape="-409.76,194.85 -426.94,180.08">
        <lane id="31043_0" index="0" disallow="pedestrian tram rail_urban rail rail_electric rail_fast ship" speed="36.11" length="0.26" width="3.50" customShape="1" shape="-421.36,184.73 -421.46,184.65 -421.55,184.56"/>
    </edge>
    <edge id="31044" from="34" to="35" priority="3" type="highway.residential" spreadType="center" length="0.26" shape="-424.66,177.43 -407.49,192.20">
        <lane id="31044_0" index="0" disallow="pedestrian tram rail_urban rail rail_electric rail_fast ship" speed="36.11" length="0.26" width="3.50" customShape="1" shape="-419.17,181.99 -419.07,182.08 -418.98,182.17"/>
    </edge>
    <edge id="31051" from="31" to="37" priority="3" type="highway.residential" spreadType="center" length="11.36">
        <lane id="31051_0" index="0" disallow="pedestrian tram rail_urban rail rail_electric rail_fast ship" speed="36.11" length="11.36" width="3.50" customShape="1" shape="-448.88,130.46 -452.38,134.03 -452.47,134.12 -456.83,138.57"/>
    </edge>
    <edge id="31053" from="37" to="25" priority="3" type="highway.residential" spreadType="center" length="12.09">
        <lane id="31053_0" index="0" disallow="pedestrian tram rail_urban rail rail_electric rail_fast ship" speed="36.11" length="12.09" width="3.50" customShape="1" shape="-473.77,152.71 -478.36,156.12 -479.47,156.94 -483.48,159.92"/>
    </edge>
    <edge id="31112" from="34" to="37" priority="3" type="highway.residential" spreadType="center" length="36.53">
        <lane id="31112_0" index="0" disallow="pedestrian tram rail_urban rail rail_electric rail_fast ship" speed="36.11" length="36.53" width="3.50" customShape="1" shape="-432.81,174.68 -434.90,173.26 -462.98,154.08"/>
    </edge>
    <edge id="31185" from="32" to="37" priority="3" type="highway.residential" spreadType="center" length="8.46">
        <lane id="31185_0" index="0" disallow="pedestrian tram rail_urban rail rail_electric rail_fast ship" speed="36.11" length="8.46" width="3.37" customShape="1" shape="-476.91,141.91 -471.92,141.67 -471.79,141.66 -468.46,141.48"/>
    </edge>
    <edge id="31187" from="37" to="39" priority="3" type="highway.residential" spreadType="center" length="22.40">
        <lane id="31187_0" index="0" disallow="pedestrian tram rail_urban rail rail_electric rail_fast ship" speed="36.11" length="22.40" width="3.50" customShape="1" shape="-457.60,147.74 -444.41,159.15 -440.65,162.39"/>
    </edge>
    <edge id="31189" from="39" to="34" priority="3" type="highway.residential" spreadType="center" length="0.20">
        <lane id="31189_0" index="0" disallow="pedestrian tram rail_urban rail rail_electric rail_fast ship" speed="36.11" length="0.20" width="3.50" customShape="1" shape="-430.27,171.52 -430.15,171.68"/>
    </edge>
    <edge id="32121" from="37" to="38" priority="3" type="highway.residential" spreadType="center" length="0.47">
        <lane id="32121_0" index="0" disallow="pedestrian tram rail_urban rail rail_electric rail_fast ship" speed="36.11" length="0.47" width="3.50" customShape="1" shape="-462.89,134.01 -462.83,133.54"/>
    </edge>

    <junction id="16" type="dead_end" x="-244.77" y="190.22" incLanes="30944_0" intLanes="" shape="-245.98,188.95 -243.57,191.49" rightOfWay="edgePriority"/>
    <junction id="17" type="dead_end" x="-327.24" y="310.13" incLanes="31019_0" intLanes="" shape="-325.50,310.32 -328.97,309.93" rightOfWay="edgePriority"/>
    <junction id="25" type="dead_end" x="-483.48" y="159.92" incLanes="31053_0" intLanes="" shape="-482.44,161.33 -484.52,158.52" rightOfWay="edgePriority"/>
    <junction id="26" type="dead_end" x="-330.75" y="310.06" incLanes="" intLanes="" shape="-329.01,310.26 -332.49,309.86" rightOfWay="edgePriority"/>
    <junction id="30" type="dead_end" x="-244.06" y="194.27" incLanes="" intLanes="" shape="-245.20,192.94 -242.92,195.60" rightOfWay="edgePriority"/>
    <junction id="31" type="dead_end" x="-448.88" y="130.46" incLanes="" intLanes="" shape="-450.13,129.23 -447.63,131.68" rightOfWay="edgePriority"/>
    <junction id="32" type="dead_end" x="-476.91" y="141.91" incLanes="" intLanes="" shape="-476.83,143.59 -476.99,140.23" rightOfWay="edgePriority"/>
    <junction id="33" type="dead_end" x="-438.44" y="137.88" incLanes="" intLanes="" shape="-440.18,138.01 -436.70,137.75" rightOfWay="edgePriority"/>
    <junction id="34" type="priority" x="-425.80" y="178.75" incLanes="31043_0 31189_0" intLanes=":34_0_0 :34_1_0" shape="-422.74,185.84 -417.99,180.70 -429.42,169.70 -432.27,171.73 -431.83,173.24 -433.80,176.13 -431.24,177.94 -429.43,179.37 -428.01,180.65 -426.65,182.01 -425.00,183.66">
        <request index="0" response="00" foes="00" cont="0"/>
        <request index="1" response="00" foes="00" cont="0"/>
    </junction>
    <junction id="35" type="priority" x="-408.73" y="193.44" incLanes="30940_0 31044_0" intLanes=":35_0_0 :35_1_0 :35_2_0" shape="-388.46,209.99 -385.51,203.64 -393.11,200.00 -398.63,197.03 -402.95,194.19 -406.98,190.92 -411.63,186.67 -417.79,180.89 -422.56,186.01 -421.11,187.44 -420.74,187.89 -420.61,188.15 -420.71,188.23 -421.06,188.13 -422.38,191.38 -414.86,194.72 -409.52,197.63 -405.28,200.35 -401.07,203.15 -395.82,206.28">
        <request index="0" response="000" foes="000" cont="0"/>
        <request index="1" response="000" foes="000" cont="0"/>
        <request index="2" response="000" foes="000" cont="0"/>
    </junction>
    <junction id="36" type="priority" x="-325.86" y="226.81" incLanes="30943_0 30941_0 31020_0" intLanes=":36_0_0 :36_1_0 :36_2_0 :36_3_0 :36_4_0 :36_5_0" shape="-306.61,223.60 -307.52,216.66 -315.25,217.68 -321.02,218.34 -325.80,218.60 -330.57,218.43 -336.32,217.79 -344.03,216.65 -345.10,223.57 -340.27,224.71 -336.32,226.50 -333.26,228.95 -331.09,232.04 -329.81,235.78 -329.42,240.18 -322.42,240.25 -321.94,235.73 -320.59,231.91 -318.39,228.79 -315.32,226.36 -311.39,224.63">
        <request index="0" response="000000" foes="001000" cont="0"/>
        <request index="1" response="000000" foes="111000" cont="0"/>
        <request index="2" response="000000" foes="100000" cont="0"/>
        <request index="3" response="000011" foes="100011" cont="0"/>
        <request index="4" response="000010" foes="000010" cont="0"/>
        <request index="5" response="001110" foes="001110" cont="0"/>
    </junction>
    <junction id="37" type="priority" x="-456.19" y="152.68" incLanes="31112_0 31051_0 31185_0" intLanes=":37_0_0 :37_1_0 :37_2_0 :37_3_0" shape="-464.11,155.42 -456.47,146.41 -457.72,144.51 -457.76,143.45 -457.42,142.31 -456.69,141.09 -455.58,139.80 -458.08,137.35 -460.92,132.30 -464.72,135.59 -465.22,137.84 -465.77,138.65 -466.50,139.25 -467.43,139.63 -468.55,139.80 -468.37,143.16 -466.91,143.95 -467.54,145.07 -469.06,146.67 -471.49,148.75 -474.81,151.31 -472.73,154.12 -470.34,153.20 -468.97,153.25 -467.47,153.64 -465.85,154.36">
        <request index="0" response="0000" foes="0000" cont="0"/>
        <request index="1" response="1000" foes="1000" cont="0"/>
        <request index="2" response="1000" foes="1000" cont="0"/>
        <request index="3" response="0000" foes="0110" cont="0"/>
    </junction>
    <junction id="38" type="dead_end" x="-462.83" y="133.54" incLanes="32121_0" intLanes="" shape="-464.57,133.34 -461.10,133.75"/>
    <junction id="39" type="priority" x="-436.73" y="159.09" incLanes="30919_0 31187_0" intLanes=":39_0_0 :39_1_0" shape="-431.00,173.51 -428.15,171.48 -429.95,169.25 -431.51,167.66 -432.82,166.33 -433.86,164.91 -434.59,163.02 -435.00,160.29 -438.49,160.55 -438.55,161.27 -438.68,161.43 -438.89,161.44 -439.16,161.32 -439.51,161.06 -441.80,163.71 -439.38,165.68 -437.49,167.05 -435.92,168.17 -434.46,169.39 -432.89,171.05">
        <request index="0" response="00" foes="10" cont="0"/>
        <request index="1" response="01" foes="01" cont="0"/>
    </junction>
    <junction id="5" type="dead_end" x="-470.93" y="179.12" incLanes="30938_0" intLanes="" shape="-471.00,180.86 -470.87,177.37" rightOfWay="edgePriority"/>

    <connection from="30919" to="31189" fromLane="0" toLane="0" contPos="-4.00" shape="-438.05,143.12 -437.46,148.72 -436.60,153.77 -435.39,158.75 -433.98,163.14 -432.21,167.39 -430.33,171.03 -428.14,174.50 -427.85,174.91" via=":39_0_0" dir="s" state="M"/>
    <connection from="30940" to="30938" fromLane="0" toLane="0" contPos="-4.00" shape="-387.82,208.36 -397.26,203.39 -415.50,193.34 -423.67,189.23 -429.21,186.70" via=":35_0_0" dir="s" state="M"/>
    <connection from="30940" to="31043" fromLane="0" toLane="0" contPos="-4.00" shape="-387.82,208.36 -393.41,205.38 -399.74,201.57 -405.86,197.43 -411.76,192.99 -417.44,188.26 -421.36,184.73" via=":35_1_0" dir="L" state="M"/>
    <connection from="30941" to="30944" fromLane="0" toLane="0" contPos="-4.00" shape="-344.32,218.38 -338.17,219.06 -331.99,219.41 -324.76,219.46 -316.50,219.14 -307.29,218.40" via=":36_2_0" dir="r" state="M"/>
    <connection from="30941" to="31019" fromLane="0" toLane="0" contPos="-4.00" shape="-344.32,218.38 -340.57,219.10 -338.11,219.79 -335.73,220.70 -333.45,221.85 -331.33,223.27 -329.42,224.96 -327.78,226.91 -326.45,229.09 -325.45,231.44 -324.76,233.89 -324.35,236.41 -324.18,238.96 -324.17,240.23" via=":36_3_0" dir="l" state="m"/>
    <connection from="30943" to="31019" fromLane="0" toLane="0" contPos="-4.00" shape="-306.90,221.87 -310.11,222.36 -312.22,222.89 -314.26,223.62 -316.22,224.57 -318.03,225.77 -319.64,227.22 -321.02,228.89 -322.13,230.76 -322.98,232.76 -323.57,234.85 -323.95,236.99 -324.17,240.23" via=":36_0_0" dir="r" state="M"/>
    <connection from="30943" to="30940" fromLane="0" toLane="0" contPos="-4.00" shape="-306.90,221.87 -316.33,222.63 -324.76,222.96 -332.15,222.90 -338.50,222.55 -344.83,221.84" via=":36_1_0" dir="l" state="M"/>
    <connection from="31020" to="30940" fromLane="0" toLane="0" contPos="-4.00" shape="-327.67,240.17 -327.68,239.10 -327.82,236.89 -328.18,234.75 -328.76,232.69 -329.60,230.75 -330.69,228.96 -332.04,227.37 -333.63,225.98 -335.41,224.81 -337.34,223.85 -339.39,223.07 -341.51,222.47 -344.83,221.84" via=":36_4_0" dir="r" state="m"/>
    <connection from="31020" to="30944" fromLane="0" toLane="0" contPos="-4.00" shape="-327.67,240.17 -327.41,236.45 -326.97,233.94 -326.27,231.47 -325.26,229.07 -323.92,226.82 -322.25,224.78 -320.29,223.02 -318.12,221.57 -315.80,220.43 -313.39,219.57 -310.93,218.95 -307.29,218.40" via=":36_5_0" dir="l" state="m"/>
    <connection from="31043" to="31112" fromLane="0" toLane="0" contPos="-4.00" shape="-421.54,184.57 -428.77,178.07 -433.14,174.53 -434.80,173.33" via=":34_0_0" dir="s" state="M"/>
    <connection from="31044" to="30941" fromLane="0" toLane="0" contPos="-4.00" shape="-418.99,182.16 -415.15,185.62 -409.60,190.24 -403.84,194.58 -397.87,198.62 -391.69,202.33 -386.25,205.23" via=":35_2_0" dir="s" state="M"/>
    <connection from="31051" to="31187" fromLane="0" toLane="0" contPos="-4.00" shape="-452.56,134.21 -454.05,136.00 -454.93,137.51 -455.55,139.15 -455.85,140.87 -455.85,142.62 -455.55,144.34 -454.81,146.55 -453.76,148.63 -452.16,151.07 -449.94,153.78 -447.09,156.71 -444.50,159.06" via=":37_2_0" dir="r" state="m"/>
    <connection from="31112" to="31053" fromLane="0" toLane="0" contPos="-4.00" shape="-435.00,173.19 -444.12,167.17 -451.69,162.59 -457.63,159.36 -462.81,156.93 -466.70,155.45 -469.70,154.61 -472.27,154.22 -474.35,154.24 -475.87,154.58 -476.82,155.01 -477.25,155.30" via=":37_0_0" dir="r" state="M"/>
    <connection from="31112" to="32121" fromLane="0" toLane="0" contPos="-4.00" via=":37_1_0" dir="s" state="m"/>
    <connection from="31185" to="31187" fromLane="0" toLane="0" contPos="-4.00" shape="-471.66,141.65 -470.14,141.78 -468.18,142.34 -465.39,143.60 -461.86,145.65 -457.22,148.82 -451.16,153.49 -444.50,159.06" via=":37_3_0" dir="s" state="M"/>
    <connection from="31187" to="31189" fromLane="0" toLane="0" contPos="-4.00" shape="-444.31,159.23 -435.41,167.13 -430.57,171.80 -428.16,174.50 -427.85,174.91" via=":39_1_0" dir="s" state="m"/>
    <connection from="31189" to="31044" fromLane="0" toLane="0" contPos="-4.00" shape="-427.70,175.12 -426.69,176.33 -425.12,177.71 -420.37,180.99 -419.17,181.99" via=":34_1_0" dir="s" state="M"/>

    <connection from=":34_0" to="31112" fromLane="0" toLane="0" dir="s" state="M"/>
    <connection from=":34_1" to="31044" fromLane="0" toLane="0" dir="s" state="M"/>
    <connection from=":35_0" to="30938" fromLane="0" toLane="0" dir="s" state="M"/>
    <connection from=":35_1" to="31043" fromLane="0" toLane="0" dir="L" state="M"/>
    <connection from=":35_2" to="30941" fromLane="0" toLane="0" dir="s" state="M"/>
    <connection from=":36_0" to="31019" fromLane="0" toLane="0" dir="r" state="M"/>
    <connection from=":36_1" to="30940" fromLane="0" toLane="0" dir="l" state="M"/>
    <connection from=":36_2" to="30944" fromLane="0" toLane="0" dir="r" state="M"/>
    <connection from=":36_3" to="31019" fromLane="0" toLane="0" dir="l" state="M"/>
    <connection from=":36_4" to="30940" fromLane="0" toLane="0" dir="r" state="M"/>
    <connection from=":36_5" to="30944" fromLane="0" toLane="0" dir="l" state="M"/>
    <connection from=":37_0" to="31053" fromLane="0" toLane="0" dir="r" state="M"/>
    <connection from=":37_1" to="32121" fromLane="0" toLane="0" dir="s" state="M"/>
    <connection from=":37_2" to="31187" fromLane="0" toLane="0" dir="r" state="M"/>
    <connection from=":37_3" to="31187" fromLane="0" toLane="0" dir="s" state="M"/>
    <connection from=":39_0" to="31189" fromLane="0" toLane="0" dir="s" state="M"/>
    <connection from=":39_1" to="31189" fromLane="0" toLane="0" dir="s" state="M"/>

</net>