<routes>
	<vehicle depart="0.1" departLane="0" departPos="30.17991715455049" departSpeed="2.0503198" id="314" type="bicycle">
		<route edges="30941 31019"/>
	</vehicle>
	<vehicle depart="0.1" departLane="0" departPos="42.24179444339053" departSpeed="1.235642" id="32" type="passenger">
		<route edges="30941 31019"/>
	</vehicle>
	<vehicle depart="0.1" departLane="0" departPos="10.518157111702042" departSpeed="0.86101957" id="37" type="passenger">
		<route edges=":36_5 30944"/>
	</vehicle>
	<vehicle depart="0.1" departLane="0" departPos="64.30465999480202" departSpeed="0.016994329" id="38" type="passenger">
		<route edges="31020 30940"/>
	</vehicle>
	<vehicle depart="0.1" departLane="0" departPos="2.5" departSpeed="1.6665505" id="311" type="passenger">
		<route edges=":36_3 31019"/>
	</vehicle>
	<vehicle depart="0.1" departLane="0" departPos="35.36861713818624" departSpeed="0.53417895" id="317" type="passenger">
		<route edges="30941 31019"/>
	</vehicle>
	<vehicle depart="0.1" departLane="0" departPos="18.766045549968577" departSpeed="1.5148538" id="322" type="passenger">
		<route edges="30941 31019"/>
	</vehicle>
	<vehicle depart="0.1" departLane="0" departPos="8.169314873923897" departSpeed="2.2915353" id="326" type="passenger">
		<route edges="30941 31019"/>
	</vehicle>
	<vehicle depart="0.1" departLane="0" departPos="28.862960879915537" departSpeed="9.0433217" id="332" type="passenger">
		<route edges=":36_0 31019"/>
	</vehicle>
	<vehicle depart="0.1" departLane="0" departPos="15.187486255606098" departSpeed="7.6953515" id="335" type="passenger">
		<route edges=":36_1 30940 30938"/>
	</vehicle>
</routes>
