<routes>
	<vehicle depart="0.1" departLane="0" departPos="34.42569523139999" departSpeed="0.0" id="314" type="bicycle">
		<route edges="183 180"/>
	</vehicle>
	<vehicle depart="0.1" departLane="0" departPos="18.7321537734351" departSpeed="6.8293884" id="315" type="bicycle">
		<route edges="183 180"/>
	</vehicle>
	<vehicle depart="0.1" departLane="0" departPos="20.263080596609548" departSpeed="5.5153101" id="333" type="bus">
		<route edges=":33_5 183 180"/>
	</vehicle>
	<vehicle depart="0.1" departLane="0" departPos="59.7770308063772" departSpeed="0.052511047" id="334" type="bus">
		<route edges="330 181"/>
	</vehicle>
	<vehicle depart="0.1" departLane="0" departPos="22.235606694191368" departSpeed="1.4758385e-05" id="34" type="passenger">
		<route edges="181 877"/>
	</vehicle>
	<vehicle depart="0.1" departLane="0" departPos="36.42668019478752" departSpeed="0.0" id="35" type="passenger">
		<route edges="181 877"/>
	</vehicle>
	<vehicle depart="0.1" departLane="0" departPos="29.141236266770072" departSpeed="0.0" id="36" type="passenger">
		<route edges="181 877"/>
	</vehicle>
	<vehicle depart="0.1" departLane="0" departPos="30.3992143993061" departSpeed="0.0" id="39" type="passenger">
		<route edges="460 187"/>
	</vehicle>
	<vehicle depart="0.1" departLane="0" departPos="34.04275373729551" departSpeed="0.0" id="316" type="passenger">
		<route edges="183 180"/>
	</vehicle>
	<vehicle depart="0.1" departLane="0" departPos="15.238047667030996" departSpeed="0.00018136552" id="317" type="passenger">
		<route edges="181 877"/>
	</vehicle>
	<vehicle depart="0.1" departLane="0" departPos="23.512487863298055" departSpeed="1.451898e-05" id="318" type="passenger">
		<route edges="460 187"/>
	</vehicle>
	<vehicle depart="0.1" departLane="0" departPos="26.75756170255963" departSpeed="0.012281434" id="320" type="passenger">
		<route edges="183 180"/>
	</vehicle>
	<vehicle depart="0.1" departLane="0" departPos="5.488601774701141" departSpeed="0.0" id="321" type="passenger">
		<route edges="328 331"/>
	</vehicle>
	<vehicle depart="0.1" departLane="0" departPos="16.389903103122883" departSpeed="0.00019267177" id="322" type="passenger">
		<route edges="460 187"/>
	</vehicle>
	<vehicle depart="0.1" departLane="0" departPos="22.160576013253674" departSpeed="11.176104" id="324" type="passenger">
		<route edges="331"/>
	</vehicle>
	<vehicle depart="0.1" departLane="0" departPos="19.76055448538386" departSpeed="0.11115717" id="325" type="passenger">
		<route edges="183 180"/>
	</vehicle>
	<vehicle depart="0.1" departLane="0" departPos="9.28719268000733" departSpeed="0.0012371008" id="327" type="passenger">
		<route edges="460 187"/>
	</vehicle>
	<vehicle depart="0.1" departLane="0" departPos="33.431013119230656" departSpeed="0.68434715" id="335" type="passenger">
		<route edges="186 183"/>
	</vehicle>
	<vehicle depart="0.1" departLane="0" departPos="20.58017812594249" departSpeed="6.6042757" id="336" type="passenger">
		<route edges="184 187"/>
	</vehicle>
	<vehicle depart="0.1" departLane="0" departPos="13.294067808162898" departSpeed="1.990839" id="339" type="passenger">
		<route edges="876 184"/>
	</vehicle>
	<vehicle depart="0.1" departLane="0" departPos="7.188697430456509" departSpeed="6.6907551" id="340" type="passenger">
		<route edges="184 187"/>
	</vehicle>
	<vehicle depart="0.1" departLane="0" departPos="44.13463691634072" departSpeed="0.79481294" id="341" type="passenger">
		<route edges="330 181"/>
	</vehicle>
	<vehicle depart="0.1" departLane="0" departPos="34.17711559652597" departSpeed="2.5136399" id="342" type="passenger">
		<route edges="330 181"/>
	</vehicle>
	<vehicle depart="0.1" departLane="0" departPos="14.666394530022082" departSpeed="3.2302504" id="343" type="passenger">
		<route edges="186 183"/>
	</vehicle>
	<vehicle depart="0.1" departLane="0" departPos="23.598617794178274" departSpeed="3.5435073" id="344" type="passenger">
		<route edges="330 181"/>
	</vehicle>
	<vehicle depart="0.1" departLane="0" departPos="5.552449721174586" departSpeed="7.6488695" id="345" type="passenger">
		<route edges=":36_5 180 331"/>
	</vehicle>
	<vehicle depart="0.1" departLane="0" departPos="13.189644269491595" departSpeed="3.6703518" id="346" type="passenger">
		<route edges="330 181"/>
	</vehicle>
	<vehicle depart="0.1" departLane="0" departPos="8.843516603864952" departSpeed="3.78661" id="347" type="passenger">
		<route edges="879 877"/>
	</vehicle>
	<vehicle depart="0.1" departLane="0" departPos="5.356285709825215" departSpeed="0.87380444" id="348" type="passenger">
		<route edges="876 184"/>
	</vehicle>
	<vehicle depart="0.1" departLane="0" departPos="6.069151209902575" departSpeed="1.7727927" id="349" type="passenger">
		<route edges="186 183"/>
	</vehicle>
	<vehicle depart="0.1" departLane="0" departPos="5.400325269348155" departSpeed="1.2447377" id="350" type="passenger">
		<route edges="330 181"/>
	</vehicle>
	<vehicle depart="0.1" departLane="0" departPos="64.42577884428457" departSpeed="0.0" id="310" type="motorcycle">
		<route edges="330 181"/>
	</vehicle>
	<vehicle depart="0.1" departLane="0" departPos="7.192111475455554" departSpeed="5.2983488" id="326" type="motorcycle">
		<route edges=":36_11 184 187"/>
	</vehicle>
	<vehicle depart="0.1" departLane="0" departPos="33.53457917851218" departSpeed="3.0921627" id="329" type="motorcycle">
		<route edges="184 187"/>
	</vehicle>
	<vehicle depart="0.1" departLane="0" departPos="19.53726381886488" departSpeed="3.2070675" id="337" type="motorcycle">
		<route edges="876 184"/>
	</vehicle>
	<vehicle depart="0.1" departLane="0" departPos="22.66251586619877" departSpeed="2.8699388" id="338" type="motorcycle">
		<route edges="186 183"/>
	</vehicle>
	<vehicle depart="0.1" departLane="0" departPos="40.165210746379785" departSpeed="0.0" id="30" type="truck">
		<route edges="460 187"/>
	</vehicle>
	<vehicle depart="0.1" departLane="0" departPos="8.23786559458732" departSpeed="0.0013922072" id="31" type="truck">
		<route edges="181 877"/>
	</vehicle>
</routes>
