<!-- generated on 2020-12-18 15:44:12.506859 by ipykernel_launcher.py v1_2_0+5214-53edc58fcd
-->
<edges>
	<edge from="1" function="normal" id="50195" length="139.5693203248891" numLanes="1" priority="1" speed="36.11111111111111" spreadType="center" to="2">
		<lane allow="pedestrian rail private passenger ship delivery vip emergency bicycle rail_electric army rail_urban trailer coach custom2 tram taxi evehicle custom1 motorcycle authority hov moped" index="0" length="139.5693203248891" shape="-130.85685,-36.64555 -113.80095,-28.594 -95.85364999999999,-20.6368 -95.14165,-20.3308 -88.398,-17.4876 -81.64435,-14.831900000000001 -80.62305,-14.43525 -66.52735,-9.1258 -65.85825,-8.8911 -58.748999999999995,-6.57075 -57.95585,-6.33245 -51.568200000000004,-4.55285 -51.335300000000004,-4.4879999999999995 -46.63225,-3.22455 -45.68115,-3.0155000000000003 -41.5833,-2.27223 -40.0482,-2.0308450000000002 -32.632549999999995,-1.10811 -21.49655,-0.11854999999999993 -11.21785,0.42084999999999995 -10.4845,0.42705000000000004 1.9432,-0.08365" speed="36.11111111111111" width="2.6989685177860085"/>
	</edge>
	<edge from="3" function="normal" id="50197" length="140.1438868642836" numLanes="1" priority="1" speed="36.11111111111111" spreadType="center" to="4">
		<lane allow="pedestrian rail private passenger ship delivery vip emergency bicycle rail_electric army rail_urban trailer coach custom2 tram taxi evehicle custom1 motorcycle authority hov moped" index="0" length="140.1438868642836" shape="1.342025,3.7668999999999997 -11.31915,3.88955 -11.7625,3.87885 -20.77345,3.3051500000000003 -21.731,3.2192499999999997 -32.2669,2.025685 -32.70195,1.96732 -40.4503,0.878155 -42.34365,0.554285 -46.25345,-0.3011999999999999 -51.488150000000005,-1.622795 -52.13065,-1.80778 -59.575,-4.0024999999999995 -66.8613,-6.32245 -67.49045,-6.53705 -82.19115,-11.863050000000001 -82.71235,-12.05075 -89.53434999999999,-14.5304 -90.09465,-14.74595 -97.08949999999999,-17.721049999999998 -99.31175,-18.6946 -115.03970000000001,-26.01805 -131.99405,-33.8894" speed="36.11111111111111" width="2.524993726724882"/>
	</edge>
	<edge from="5" function="normal" id="50199" length="72.91738430058801" numLanes="1" priority="1" speed="36.11111111111111" spreadType="center" to="6">
		<lane allow="pedestrian rail private passenger ship delivery vip emergency bicycle rail_electric army rail_urban trailer coach bus custom2 tram taxi evehicle custom1 motorcycle authority truck hov moped" index="0" length="72.91738430058801" shape="28.47935,-3.2311500000000004 41.33515,-6.0833 52.765,-8.58075 53.28345,-8.696 63.1646,-10.71745 71.8052,-11.841149999999999 72.147,-11.87505 80.6098,-12.3107 89.3116,-12.3407 90.11595,-12.32165 100.5052,-11.96695" speed="36.11111111111111" width="3.786962694561436"/>
	</edge>
	<edge from="7" function="normal" id="50201" length="71.74119424119823" numLanes="1" priority="1" speed="36.11111111111111" spreadType="center" to="8">
		<lane allow="pedestrian rail private passenger ship delivery vip emergency bicycle rail_electric army rail_urban trailer coach bus custom2 tram taxi evehicle custom1 motorcycle authority truck hov moped" index="0" length="71.74119424119823" shape="100.3438,-8.283999999999999 89.99315,-8.51225 88.4636,-8.5258 80.73325,-8.40545 72.27275,-7.6616 63.94785,-6.319000000000001 53.6486,-4.29455 29.44335,0.6503999999999999" speed="36.11111111111111" width="3.586644526573548"/>
	</edge>
	<edge from="9" function="normal" id="50203" length="183.10438764901946" numLanes="1" priority="1" speed="36.11111111111111" spreadType="center" to="10">
		<lane allow="pedestrian rail private passenger ship delivery vip emergency bicycle rail_electric army rail_urban trailer coach custom2 tram taxi evehicle custom1 motorcycle authority truck hov moped" index="0" length="183.10438764901946" shape="18.538600000000002,11.656749999999999 18.1479,14.7476 17.08575,19.55755 15.1968,26.09685 13.0095,32.811949999999996 9.1701,44.6019 4.0328,59.78395 -0.799945,74.2969 -6.63985,89.69825 -11.913350000000001,102.96265 -17.51745,117.32974999999999 -23.4518,132.5534 -30.34175,148.1859 -36.987,163.7439 -41.6002,174.30235 -45.251850000000005,183.0082" speed="36.11111111111111" width="3.4363385528786305"/>
	</edge>
	<edge from="11" function="normal" id="50205" length="181.2857864274487" numLanes="1" priority="1" speed="36.11111111111111" spreadType="center" to="12">
		<lane allow="pedestrian rail private passenger ship delivery vip emergency bicycle rail_electric army rail_urban trailer coach custom2 tram taxi evehicle custom1 motorcycle authority truck hov moped" index="0" length="181.2857864274487" shape="-48.48165,181.12865 -43.70325,169.76305 -37.2019,154.56985 -29.71495,137.47265 -23.731450000000002,123.02805000000001 -17.724,107.9666 -12.91575,94.64245 -7.94275,81.487 -1.970445,65.155 2.357265,51.81529999999999 8.26915,34.066599999999994 11.0892,26.50395 12.75775,21.40215 14.03485,17.2667 14.5589,14.45795 14.63675,11.517900000000001" speed="36.11111111111111" width="3.4467039704622144"/>
	</edge>
	<edge from="12" function="normal" id="50207" length="17.93157215965295" numLanes="1" priority="1" speed="36.11111111111111" spreadType="center" to="3">
		<lane allow="pedestrian rail private passenger ship delivery vip emergency bicycle rail_electric army rail_urban trailer coach custom2 tram taxi evehicle custom1 motorcycle authority hov moped" index="0" length="17.93157215965295" shape="14.63675,11.517900000000001 14.334150000000001,10.26615 14.303,9.397549999999999 14.29165,9.0817 13.79075,7.7088 13.5965,6.966200000000001 13.4853,6.60085 13.287849999999999,6.304250000000001 12.858699999999999,5.85085 12.45985,5.628900000000001 11.306049999999999,4.98455 10.502849999999999,4.7014 10.016449999999999,4.64195 9.57415,4.61485 8.9744,4.5953 6.9382,4.1115 6.620950000000001,4.09905 5.1129,3.94725 4.02365,3.82885 2.9527,3.7904999999999998 1.342025,3.7668999999999997" speed="36.11111111111111" width="4.109181339391096"/>
	</edge>
	<edge from="2" function="normal" id="50209" length="24.963081620888797" numLanes="1" priority="1" speed="36.11111111111111" spreadType="center" to="9">
		<lane allow="pedestrian rail private passenger ship delivery vip emergency bicycle rail_electric army rail_urban trailer coach custom2 tram taxi evehicle custom1 motorcycle authority hov moped" index="0" length="24.963081620888797" shape="1.9432,-0.08365 4.2875499999999995,-0.15189999999999992 7.246,-0.15649999999999986 8.3189,-0.16285000000000005 10.1345,-0.08789999999999998 11.4907,0.08204999999999996 12.53065,0.25329999999999997 13.6554,0.61435 14.9408,1.155205 15.957149999999999,1.88129 17.016099999999998,2.8929 17.531550000000003,3.63265 17.955750000000002,4.551349999999999 18.45195,7.6722 18.538600000000002,11.656749999999999" speed="36.11111111111111" width="3.0045405416469255"/>
	</edge>
	<edge from="2" function="normal" id="50211" length="26.76437045113491" numLanes="1" priority="1" speed="36.11111111111111" spreadType="center" to="5">
		<lane allow="pedestrian rail private passenger ship delivery vip emergency bicycle rail_electric army rail_urban trailer coach bus custom2 tram taxi evehicle custom1 motorcycle authority truck hov moped" index="0" length="26.76437045113491" shape="1.9432,-0.08365 9.407800000000002,-0.4125000000000001 10.55015,-0.5056 14.3403,-0.91065 18.7154,-1.42758 28.47935,-3.2311500000000004" speed="36.11111111111111" width="3.689196775722325"/>
	</edge>
	<edge from="8" function="normal" id="50213" length="28.315181823628635" numLanes="1" priority="1" speed="36.11111111111111" spreadType="center" to="3">
		<lane allow="pedestrian rail private passenger ship delivery vip emergency bicycle rail_electric army rail_urban trailer coach bus custom2 tram taxi evehicle custom1 motorcycle authority truck hov moped" index="0" length="28.315181823628635" shape="29.44335,0.6503999999999999 23.39575,1.7211395 19.59975,2.38852 17.8901,2.620775 14.7671,2.944 10.5624,3.3335999999999997 9.7033,3.4082 5.448499999999999,3.6237000000000004 1.342025,3.7668999999999997" speed="36.11111111111111" width="3.5224949515364816"/>
	</edge>
	<edge from="8" function="normal" id="50215" length="18.405204940204378" numLanes="1" priority="1" speed="36.11111111111111" spreadType="center" to="9">
		<lane allow="pedestrian rail private passenger ship delivery vip emergency bicycle rail_electric army rail_urban trailer coach custom2 tram taxi evehicle custom1 motorcycle authority hov moped" index="0" length="18.405204940204378" shape="29.44335,0.6503999999999999 23.8072,1.86394 21.6334,2.401025 20.85145,2.76715 19.92685,3.607 19.3104,4.711650000000001 18.936,5.9281500000000005 18.6425,8.04055 18.538600000000002,11.656749999999999" speed="36.11111111111111" width="3.4363385528786305"/>
	</edge>
	<edge from="12" function="normal" id="50217" length="24.068275907707175" numLanes="1" priority="1" speed="36.11111111111111" spreadType="center" to="5">
		<lane allow="pedestrian rail private passenger ship delivery vip emergency bicycle rail_electric army rail_urban trailer coach custom2 tram taxi evehicle custom1 motorcycle authority hov moped" index="0" length="24.068275907707175" shape="14.63675,11.517900000000001 14.479600000000001,7.9014500000000005 14.4742,6.41475 14.5047,6.165100000000001 14.6171,4.9994499999999995 14.7347,4.49045 15.0366,3.33515 15.328600000000002,2.6929 15.606850000000001,2.10135 16.17965,1.123065 16.35295,0.9496899999999999 17.2234,0.0301499999999999 17.609949999999998,-0.24539999999999995 17.94345,-0.47635000000000005 18.53865,-0.815925 18.773600000000002,-0.9374800000000001 19.3884,-1.1766100000000002 20.1093,-1.43749 21.9713,-1.9130200000000002 28.47935,-3.2311500000000004" speed="36.11111111111111" width="3.9574864007978596"/>
	</edge>
</edges>
