<routes>
	<vehicle depart="0.1" departLane="0" departPos="23.353198664596547" departSpeed="5.951326" id="37" type="bicycle">
		<route edges=":34_0 9690 9627"/>
	</vehicle>
	<vehicle depart="0.1" departLane="0" departPos="49.97027197254677" departSpeed="2.6651399" id="358" type="bus">
		<route edges="9706 9689"/>
	</vehicle>
	<vehicle depart="0.1" departLane="0" departPos="6.2" departSpeed="2.9642748" id="369" type="bus">
		<route edges="9706 9689"/>
	</vehicle>
	<vehicle depart="0.1" departLane="0" departPos="9.978117354693996" departSpeed="0.0" id="35" type="passenger">
		<route edges="9690 9627"/>
	</vehicle>
	<vehicle depart="0.1" departLane="0" departPos="32.43690863053314" departSpeed="0.0" id="38" type="passenger">
		<route edges="9628 9707"/>
	</vehicle>
	<vehicle depart="0.1" departLane="0" departPos="63.32655121859497" departSpeed="0.77478402" id="312" type="passenger">
		<route edges="9721 9689"/>
	</vehicle>
	<vehicle depart="0.1" departLane="0" departPos="69.64762195323307" departSpeed="0.09518209" id="318" type="passenger">
		<route edges="9721 9689"/>
	</vehicle>
	<vehicle depart="0.1" departLane="0" departPos="5.092567001057155" departSpeed="0.73518171" id="343" type="passenger">
		<route edges=":35_2 9689 9649"/>
	</vehicle>
	<vehicle depart="0.1" departLane="0" departPos="20.247659937456106" departSpeed="3.4738761" id="365" type="passenger">
		<route edges="9706 9689"/>
	</vehicle>
	<vehicle depart="0.1" departLane="0" departPos="7.534450678247756" departSpeed="11.464536" id="348" type="motorcycle">
		<route edges=":35_1 9720"/>
	</vehicle>
</routes>
