<routes>
	<vehicle depart="0.1" departLane="0" departPos="19.751034022402568" departSpeed="7.1040826" id="311" type="bicycle">
		<route edges=":37_3 46852 46813"/>
	</vehicle>
	<vehicle depart="0.1" departLane="0" departPos="70.00134642843679" departSpeed="0.0" id="343" type="bus">
		<route edges="46661 46852"/>
	</vehicle>
	<vehicle depart="0.1" departLane="0" departPos="85.78970507372333" departSpeed="0.63327352" id="310" type="passenger">
		<route edges="46873 46662"/>
	</vehicle>
	<vehicle depart="0.1" departLane="0" departPos="72.47811696420281" departSpeed="1.6848291" id="315" type="passenger">
		<route edges="46724 46662"/>
	</vehicle>
	<vehicle depart="0.1" departLane="0" departPos="74.45952765419459" departSpeed="0.036170822" id="328" type="passenger">
		<route edges="46873 46662"/>
	</vehicle>
	<vehicle depart="0.1" departLane="0" departPos="54.359954353406714" departSpeed="2.1514409" id="337" type="passenger">
		<route edges="46724 46662"/>
	</vehicle>
	<vehicle depart="0.1" departLane="0" departPos="34.32623965280975" departSpeed="3.5303287" id="348" type="passenger">
		<route edges="46724 46662"/>
	</vehicle>
	<vehicle depart="0.1" departLane="0" departPos="21.987364154719867" departSpeed="3.8078168" id="354" type="passenger">
		<route edges="46724 46662"/>
	</vehicle>
	<vehicle depart="0.1" departLane="0" departPos="10.699570739891946" departSpeed="3.1997234" id="363" type="passenger">
		<route edges="46724 46662"/>
	</vehicle>
	<vehicle depart="0.1" departLane="0" departPos="41.58380077043852" departSpeed="4.2589426" id="340" type="motorcycle">
		<route edges="46724 46662"/>
	</vehicle>
</routes>
