<routes>
	<vehicle depart="0.1" departLane="0" departPos="41.75069667379657" departSpeed="8.2554377" id="1" type="passenger">
		<route edges="50201 50213 50197"/>
	</vehicle>
	<vehicle depart="0.1" departLane="0" departPos="108.44106657879563" departSpeed="1.162843" id="2" type="passenger">
		<route edges="50195 50211 50199"/>
	</vehicle>
	<vehicle depart="0.1" departLane="0" departPos="147.39860632604586" departSpeed="1.4355764" id="4" type="passenger">
		<route edges="50205 50207 50197"/>
	</vehicle>
	<vehicle depart="0.1" departLane="0" departPos="155.39876745202514" departSpeed="4.7075205" id="5" type="passenger">
		<route edges="50205 50217 50199"/>
	</vehicle>
	<vehicle depart="0.1" departLane="0" departPos="33.749772244728284" departSpeed="2.8529773" id="7" type="passenger">
		<route edges="50201 50213 50197"/>
	</vehicle>
</routes>
