<routes>
	<vehicle depart="0.1" departLane="1" departPos="18.89214271590615" departSpeed="6.0468105" id="312" type="bicycle">
		<route edges=":38_2 32138 35276"/>
	</vehicle>
	<vehicle depart="0.1" departLane="1" departPos="12.448229936121512" departSpeed="0.0" id="316" type="passenger">
		<route edges="31792 31892"/>
	</vehicle>
	<vehicle depart="0.1" departLane="0" departPos="8.567955218517255" departSpeed="0.8402062" id="318" type="passenger">
		<route edges=":39_3 31892 31380 36127 31120"/>
	</vehicle>
	<vehicle depart="0.1" departLane="0" departPos="7.312691975010779" departSpeed="0.15019229" id="321" type="passenger">
		<route edges=":39_8 35276"/>
	</vehicle>
	<vehicle depart="0.1" departLane="0" departPos="14.027311339705367" departSpeed="1.8518701" id="324" type="passenger">
		<route edges=":39_8 35276"/>
	</vehicle>
	<vehicle depart="0.1" departLane="1" departPos="4.847321663662959" departSpeed="7.901101e-05" id="326" type="passenger">
		<route edges="31792 31892"/>
	</vehicle>
	<vehicle depart="0.1" departLane="0" departPos="17.641936657042677" departSpeed="1.2106927" id="328" type="passenger">
		<route edges=":40_1 31792"/>
	</vehicle>
	<vehicle depart="0.1" departLane="1" departPos="15.889935370788155" departSpeed="11.73773" id="329" type="passenger">
		<route edges=":38_2 32138 35276"/>
	</vehicle>
	<vehicle depart="0.1" departLane="1" departPos="12.094948805094342" departSpeed="1.2480263" id="341" type="passenger">
		<route edges="35289 31657"/>
	</vehicle>
	<vehicle depart="0.1" departLane="0" departPos="5.705817825574241" departSpeed="7.7927436" id="349" type="passenger">
		<route edges=":41_3 33697"/>
	</vehicle>
</routes>
