<!-- generated on Tue Feb  9 22:18:51 2021 by Eclipse SUMO netconvert Version 1.8.0
<configuration xmlns:xsi="http://www.w3.org/2001/XMLSchema-instance" xsi:noNamespaceSchemaLocation="http://sumo.dlr.de/xsd/netconvertConfiguration.xsd">

    <input>
        <node-files value="./converted_scenarios/scenario-factory/DEU_Ibbenbueren-11_1_I-1-1/DEU_Ibbenbueren-11_1_I-1-1.nod.xml"/>
        <edge-files value="./converted_scenarios/scenario-factory/DEU_Ibbenbueren-11_1_I-1-1/DEU_Ibbenbueren-11_1_I-1-1.edg.xml"/>
        <connection-files value="./converted_scenarios/scenario-factory/DEU_Ibbenbueren-11_1_I-1-1/DEU_Ibbenbueren-11_1_I-1-1.con.xml"/>
        <tllogic-files value="./converted_scenarios/scenario-factory/DEU_Ibbenbueren-11_1_I-1-1/DEU_Ibbenbueren-11_1_I-1-1.tll.xml"/>
        <type-files value="/home/zen/commonroad-interactive-benchmarks/install/commonroad-map-tool/crmapconverter/sumo_map/templates/DEU.typ.xml"/>
    </input>

    <output>
        <output-file value="./converted_scenarios/scenario-factory/DEU_Ibbenbueren-11_1_I-1-1/DEU_Ibbenbueren-11_1_I-1-1.net.xml"/>
    </output>

    <processing>
        <geometry.remove.keep-edges.explicit value="true"/>
        <geometry.avoid-overlap value="true"/>
        <offset.disable-normalization value="true"/>
    </processing>

    <junctions>
        <no-turnarounds value="true"/>
        <junctions.internal-link-detail value="20"/>
    </junctions>

    <report>
        <aggregate-warnings value="5"/>
    </report>

    <random_number>
        <seed value="1234"/>
    </random_number>

</configuration>
--><net xmlns:xsi="http://www.w3.org/2001/XMLSchema-instance" version="1.6" junctionCornerDetail="5" junctionLinkDetail="20" limitTurnSpeed="5.50" xsi:noNamespaceSchemaLocation="http://sumo.dlr.de/xsd/net_file.xsd">

    <location netOffset="0.00,0.00" convBoundary="-762.04,16.80,-632.26,214.96" origBoundary="-762.04,16.50,-632.26,214.96" projParameter="!"/>

    <type id="highway.bridleway" priority="1" speed="2.78" allow="pedestrian" oneway="1" width="2.00"/>
    <type id="highway.bus_guideway" priority="1" speed="27.78" allow="bus" oneway="1"/>
    <type id="highway.cycleway" priority="1" speed="8.33" allow="bicycle" oneway="0" width="1.00"/>
    <type id="highway.footway" priority="1" speed="2.78" allow="pedestrian" oneway="1" width="2.00"/>
    <type id="highway.ford" priority="1" speed="2.78" allow="army" oneway="0"/>
    <type id="highway.living_street" priority="2" speed="2.78" disallow="tram rail_urban rail rail_electric rail_fast ship" oneway="0"/>
    <type id="highway.motorway" priority="14" speed="39.44" allow="private emergency authority army vip passenger hov taxi bus coach delivery truck trailer motorcycle evehicle custom1 custom2" oneway="1"/>
    <type id="highway.motorway_link" priority="9" speed="22.22" allow="private emergency authority army vip passenger hov taxi bus coach delivery truck trailer motorcycle evehicle custom1 custom2" oneway="1"/>
    <type id="highway.path" priority="1" speed="2.78" allow="pedestrian bicycle" oneway="0" width="2.00"/>
    <type id="highway.pedestrian" priority="1" speed="2.78" allow="pedestrian" oneway="1" width="2.00"/>
    <type id="highway.primary" priority="12" speed="27.78" disallow="pedestrian tram rail_urban rail rail_electric rail_fast ship" oneway="0"/>
    <type id="highway.primary_link" priority="7" speed="22.22" disallow="pedestrian tram rail_urban rail rail_electric rail_fast ship" oneway="0"/>
    <type id="highway.raceway" priority="15" speed="83.33" allow="vip" oneway="0"/>
    <type id="highway.residential" priority="3" speed="13.89" disallow="pedestrian tram rail_urban rail rail_electric rail_fast ship" oneway="0"/>
    <type id="highway.secondary" priority="11" speed="27.78" disallow="pedestrian tram rail_urban rail rail_electric rail_fast ship" oneway="0"/>
    <type id="highway.secondary_link" priority="6" speed="22.22" disallow="pedestrian tram rail_urban rail rail_electric rail_fast ship" oneway="0"/>
    <type id="highway.service" priority="1" speed="5.56" allow="pedestrian delivery bicycle" oneway="0"/>
    <type id="highway.stairs" priority="1" speed="1.39" allow="pedestrian" oneway="1" width="2.00"/>
    <type id="highway.step" priority="1" speed="1.39" allow="pedestrian" oneway="1" width="2.00"/>
    <type id="highway.steps" priority="1" speed="1.39" allow="pedestrian" oneway="1" width="2.00"/>
    <type id="highway.tertiary" priority="10" speed="22.22" disallow="pedestrian tram rail_urban rail rail_electric rail_fast ship" oneway="0"/>
    <type id="highway.tertiary_link" priority="5" speed="22.22" disallow="pedestrian tram rail_urban rail rail_electric rail_fast ship" oneway="0"/>
    <type id="highway.track" priority="1" speed="5.56" allow="pedestrian motorcycle moped bicycle" oneway="0"/>
    <type id="highway.trunk" priority="13" speed="27.78" disallow="pedestrian bicycle tram rail_urban rail rail_electric rail_fast ship" oneway="0"/>
    <type id="highway.trunk_link" priority="8" speed="22.22" disallow="pedestrian bicycle tram rail_urban rail rail_electric rail_fast ship" oneway="0"/>
    <type id="highway.unclassified" priority="4" speed="13.89" disallow="pedestrian tram rail_urban rail rail_electric rail_fast ship" oneway="0"/>
    <type id="highway.unsurfaced" priority="1" speed="8.33" disallow="tram rail_urban rail rail_electric rail_fast ship" oneway="0"/>
    <type id="railway.highspeed" priority="21" speed="69.44" allow="rail_fast" oneway="1"/>
    <type id="railway.light_rail" priority="19" speed="27.78" allow="rail_urban" oneway="1"/>
    <type id="railway.preserved" priority="16" speed="27.78" allow="rail" oneway="1"/>
    <type id="railway.rail" priority="20" speed="44.44" allow="rail" oneway="1"/>
    <type id="railway.subway" priority="18" speed="27.78" allow="rail_urban" oneway="1"/>
    <type id="railway.tram" priority="17" speed="13.89" allow="tram" oneway="1"/>

    <edge id=":11_0" function="internal">
        <lane id=":11_0_0" index="0" disallow="pedestrian tram rail_urban rail rail_electric rail_fast ship" speed="36.11" length="3.00" width="3.50" shape="-637.37,160.33 -636.89,163.29"/>
    </edge>
    <edge id=":13_0" function="internal">
        <lane id=":13_0_0" index="0" disallow="pedestrian tram rail_urban rail rail_electric rail_fast ship" speed="36.11" length="2.27" width="3.50" shape="-646.84,72.75 -648.72,74.03"/>
        <lane id=":13_0_1" index="1" disallow="pedestrian tram rail_urban rail rail_electric rail_fast ship" speed="36.11" length="2.29" width="3.50" shape="-648.81,69.86 -650.70,71.16"/>
    </edge>
    <edge id=":2_0" function="internal">
        <lane id=":2_0_0" index="0" disallow="pedestrian tram rail_urban rail rail_electric rail_fast ship" speed="36.11" length="3.00" width="3.49" shape="-703.89,130.87 -705.25,133.54"/>
    </edge>
    <edge id=":23_0" function="internal">
        <lane id=":23_0_0" index="0" disallow="pedestrian tram rail_urban rail rail_electric rail_fast ship" speed="36.11" length="3.01" width="3.50" shape="-643.81,164.39 -644.29,161.42"/>
        <lane id=":23_0_1" index="1" disallow="pedestrian tram rail_urban rail rail_electric rail_fast ship" speed="36.11" length="3.01" width="3.50" shape="-640.35,163.83 -640.83,160.86"/>
    </edge>
    <edge id=":3_0" function="internal">
        <lane id=":3_0_0" index="0" disallow="pedestrian tram rail_urban rail rail_electric rail_fast ship" speed="36.11" length="2.93" width="3.50" shape="-718.88,156.02 -720.29,158.59"/>
    </edge>
    <edge id=":38_0" function="internal">
        <lane id=":38_0_0" index="0" disallow="pedestrian tram rail_urban rail rail_electric rail_fast ship" speed="14.99" length="34.34" width="3.50" shape="-674.01,98.19 -679.50,98.68 -681.44,99.48 -683.66,100.85 -686.08,102.85 -688.62,105.50 -691.24,108.77 -694.21,113.08 -697.45,118.46 -698.23,119.86"/>
    </edge>
    <edge id=":38_1" function="internal">
        <lane id=":38_1_0" index="0" disallow="pedestrian tram rail_urban rail rail_electric rail_fast ship" speed="36.11" length="34.52" width="3.50" shape="-676.33,93.33 -685.80,102.92 -689.88,107.78 -693.72,112.81 -696.07,116.26 -698.23,119.86"/>
    </edge>
    <edge id=":38_2" function="internal">
        <lane id=":38_2_0" index="0" disallow="pedestrian tram rail_urban rail rail_electric rail_fast ship" speed="36.11" length="36.28" width="3.50" shape="-704.38,116.52 -702.05,112.61 -699.53,108.91 -695.47,103.57 -691.16,98.42 -681.51,88.51"/>
        <lane id=":38_2_1" index="1" disallow="pedestrian tram rail_urban rail rail_electric rail_fast ship" speed="36.11" length="35.40" width="3.50" shape="-701.30,118.19 -699.10,114.50 -696.67,110.93 -692.72,105.73 -688.52,100.71 -678.92,90.92"/>
    </edge>
    <edge id=":39_0" function="internal">
        <lane id=":39_0_0" index="0" disallow="pedestrian tram rail_urban rail rail_electric rail_fast ship" speed="36.11" length="22.48" width="3.50" shape="-657.91,87.67 -660.89,77.23 -664.08,66.05"/>
    </edge>
    <edge id=":39_1" function="internal">
        <lane id=":39_1_0" index="0" disallow="pedestrian tram rail_urban rail rail_electric rail_fast ship" speed="11.60" length="22.73" width="3.50" shape="-654.56,86.68 -655.95,81.18 -656.33,78.39 -656.38,76.15 -656.11,73.92 -655.65,72.30 -654.92,70.78 -653.92,69.43 -652.68,68.29 -650.20,66.57"/>
    </edge>
    <edge id=":39_2" function="internal">
        <lane id=":39_2_0" index="0" disallow="pedestrian tram rail_urban rail rail_electric rail_fast ship" speed="8.74" length="12.75" width="3.50" shape="-648.89,74.14 -649.61,74.78 -650.74,76.02 -651.59,77.46 -652.10,79.05 -652.23,80.72 -652.05,82.38 -651.20,85.69"/>
    </edge>
    <edge id=":39_3" function="internal">
        <lane id=":39_3_0" index="0" disallow="pedestrian tram rail_urban rail rail_electric rail_fast ship" speed="36.11" length="21.63" width="3.50" shape="-650.87,71.27 -652.79,72.80 -655.13,74.98 -661.66,82.00 -663.98,84.19 -666.51,86.15"/>
    </edge>
    <edge id=":39_4" function="internal">
        <lane id=":39_4_0" index="0" disallow="pedestrian tram rail_urban rail rail_electric rail_fast ship" speed="8.18" length="18.63" width="3.50" shape="-650.87,71.27 -653.05,72.54 -654.83,73.34 -656.71,73.88 -658.01,73.99 -659.30,73.82 -660.50,73.31 -661.50,72.48 -662.27,71.43 -663.08,69.65 -664.08,66.05"/>
    </edge>
    <edge id=":39_5" function="internal">
        <lane id=":39_5_0" index="0" disallow="pedestrian tram rail_urban rail rail_electric rail_fast ship" speed="36.11" length="22.48" width="3.50" shape="-657.37,64.07 -654.17,75.27 -651.20,85.69"/>
    </edge>
    <edge id=":39_6" function="internal">
        <lane id=":39_6_0" index="0" disallow="pedestrian tram rail_urban rail rail_electric rail_fast ship" speed="11.88" length="23.90" width="3.50" shape="-660.72,65.06 -659.32,70.72 -659.11,72.90 -659.19,75.09 -659.61,77.24 -660.37,79.29 -661.45,81.20 -662.79,82.93 -664.76,84.83 -666.51,86.15"/>
    </edge>
    <edge id=":39_7" function="internal">
        <lane id=":39_7_0" index="0" disallow="pedestrian tram rail_urban rail rail_electric rail_fast ship" speed="10.17" length="17.43" width="3.50" shape="-670.50,80.40 -667.85,78.39 -665.84,76.50 -664.47,74.78 -663.66,73.33 -663.16,71.76 -663.05,70.66 -663.15,69.57 -664.08,66.05"/>
    </edge>
    <edge id=":39_8" function="internal">
        <lane id=":39_8_0" index="0" disallow="pedestrian tram rail_urban rail rail_electric rail_fast ship" speed="36.11" length="24.88" width="3.50" shape="-668.52,83.29 -666.11,81.42 -663.89,79.33 -657.35,72.30 -654.91,70.02 -650.20,66.57"/>
    </edge>
    <edge id=":39_9" function="internal">
        <lane id=":39_9_0" index="0" disallow="pedestrian tram rail_urban rail rail_electric rail_fast ship" speed="8.95" length="22.63" width="3.50" shape="-668.52,83.29 -665.28,81.23 -662.45,79.78 -660.06,78.92 -658.19,78.57 -656.92,78.56 -655.68,78.80 -654.53,79.33 -653.55,80.13 -652.78,81.14 -651.98,82.87 -651.20,85.69"/>
    </edge>
    <edge id=":40_0" function="internal">
        <lane id=":40_0_0" index="0" disallow="pedestrian tram rail_urban rail rail_electric rail_fast ship" speed="36.11" length="28.15" width="3.50" shape="-667.08,53.57 -668.76,45.06 -672.19,25.89"/>
    </edge>
    <edge id=":40_1" function="internal">
        <lane id=":40_1_0" index="0" disallow="pedestrian tram rail_urban rail rail_electric rail_fast ship" speed="36.11" length="27.92" width="3.50" shape="-665.29,24.71 -661.88,43.74 -660.22,52.17"/>
        <lane id=":40_1_1" index="1" disallow="pedestrian tram rail_urban rail rail_electric rail_fast ship" speed="36.11" length="28.04" width="3.50" shape="-668.74,25.30 -665.32,44.41 -663.65,52.87"/>
    </edge>
    <edge id=":41_0" function="internal">
        <lane id=":41_0_0" index="0" disallow="pedestrian tram rail_urban rail rail_electric rail_fast ship" speed="22.97" length="32.05" width="3.50" shape="-648.11,138.43 -649.55,131.36 -651.10,125.37 -652.85,119.98 -654.58,115.68 -656.39,111.97 -658.23,108.87 -658.60,108.38"/>
    </edge>
    <edge id=":41_1" function="internal">
        <lane id=":41_1_0" index="0" disallow="pedestrian tram rail_urban rail rail_electric rail_fast ship" speed="36.11" length="38.14" width="3.50" shape="-648.11,138.43 -651.49,119.66 -654.88,100.90"/>
        <lane id=":41_1_1" index="1" disallow="pedestrian tram rail_urban rail rail_electric rail_fast ship" speed="36.11" length="38.15" width="3.50" shape="-644.66,137.81 -648.05,119.04 -651.44,100.27"/>
    </edge>
    <edge id=":41_3" function="internal">
        <lane id=":41_3_0" index="0" disallow="pedestrian tram rail_urban rail rail_electric rail_fast ship" speed="36.11" length="38.15" width="3.50" shape="-647.99,99.65 -644.61,118.42 -641.22,137.19"/>
    </edge>
    <edge id=":42_0" function="internal">
        <lane id=":42_0_0" index="0" disallow="pedestrian tram rail_urban rail rail_electric rail_fast ship" speed="36.11" length="8.01" width="3.50" shape="-718.24,146.08 -716.37,141.71 -715.09,138.71"/>
        <lane id=":42_0_1" index="1" disallow="pedestrian tram rail_urban rail rail_electric rail_fast ship" speed="36.11" length="8.06" width="3.50" shape="-717.27,146.59 -712.95,139.78"/>
    </edge>

    <edge id="30823" from="25" to="23" priority="3" type="highway.residential" spreadType="center" length="29.34">
        <lane id="30823_0" index="0" disallow="pedestrian tram rail_urban rail rail_electric rail_fast ship" speed="36.11" length="29.35" width="3.50" customShape="1" shape="-639.17,193.37 -641.61,178.14 -643.81,164.39"/>
        <lane id="30823_1" index="1" disallow="pedestrian tram rail_urban rail rail_electric rail_fast ship" speed="36.11" length="29.34" width="3.50" customShape="1" shape="-635.71,192.80 -638.15,177.58 -640.35,163.83"/>
    </edge>
    <edge id="30825" from="11" to="12" priority="3" type="highway.residential" spreadType="center" length="29.32">
        <lane id="30825_0" index="0" disallow="pedestrian tram rail_urban rail rail_electric rail_fast ship" speed="36.11" length="29.32" width="3.50" customShape="1" shape="-636.89,163.29 -634.69,177.03 -632.26,192.24"/>
    </edge>
    <edge id="31120" from="3" to="8" priority="3" type="highway.residential" spreadType="center" length="68.53">
        <lane id="31120_0" index="0" disallow="pedestrian tram rail_urban rail rail_electric rail_fast ship" speed="36.11" length="68.53" width="3.50" customShape="1" shape="-720.29,158.59 -724.30,166.17 -729.40,175.43 -733.58,182.31 -736.40,186.48 -739.86,190.81 -746.19,198.64 -754.47,209.42 -758.90,214.96"/>
    </edge>
    <edge id="31121" from="10" to="42" priority="3" type="highway.residential" spreadType="center" length="80.54">
        <lane id="31121_0" index="0" disallow="pedestrian tram rail_urban rail rail_electric rail_fast ship" speed="36.11" length="80.54" width="3.50" customShape="1" shape="-762.04,213.27 -757.33,207.39 -749.06,196.63 -742.74,188.79 -739.32,184.55 -736.57,180.49 -732.43,173.70 -727.37,164.50 -717.77,146.32"/>
    </edge>
    <edge id="31145" from="23" to="41" priority="3" type="highway.residential" spreadType="center" length="23.32" shape="-642.31,162.63 -653.62,116.50">
        <lane id="31145_0" index="0" disallow="pedestrian tram rail_urban rail rail_electric rail_fast ship" speed="36.11" length="23.32" width="3.50" customShape="1" shape="-644.29,161.42 -647.68,140.87 -648.07,138.67 -648.09,138.55 -648.11,138.42"/>
        <lane id="31145_1" index="1" disallow="pedestrian tram rail_urban rail rail_electric rail_fast ship" speed="36.11" length="23.37" width="3.50" customShape="1" shape="-640.83,160.86 -644.23,140.26 -644.62,138.06 -644.64,137.93 -644.67,137.81"/>
    </edge>
    <edge id="31317" from="41" to="39" priority="3" type="highway.residential" spreadType="center" length="13.58" shape="-653.51,116.94 -662.01,77.21">
        <lane id="31317_0" index="0" disallow="pedestrian tram rail_urban rail rail_electric rail_fast ship" speed="36.11" length="13.58" width="3.50" customShape="1" shape="-654.88,100.90 -654.90,100.77 -654.92,100.65 -656.49,93.11 -657.91,87.67"/>
        <lane id="31317_1" index="1" disallow="pedestrian tram rail_urban rail rail_electric rail_fast ship" speed="36.11" length="13.95" width="3.50" customShape="1" shape="-651.44,100.27 -651.46,100.15 -651.48,100.03 -653.09,92.27 -654.56,86.68"/>
    </edge>
    <edge id="31323" from="39" to="41" priority="3" type="highway.residential" spreadType="center" length="14.33" shape="-656.87,76.11 -648.44,115.63">
        <lane id="31323_0" index="0" disallow="pedestrian tram rail_urban rail rail_electric rail_fast ship" speed="36.11" length="14.33" width="3.50" customShape="1" shape="-651.20,85.69 -649.67,91.51 -648.04,99.41 -648.01,99.53 -647.99,99.65"/>
    </edge>
    <edge id="31380" from="38" to="2" priority="3" type="highway.residential" spreadType="center" length="12.38" shape="-687.67,106.54 -704.57,132.21">
        <lane id="31380_0" index="0" disallow="pedestrian tram rail_urban rail rail_electric rail_fast ship" speed="36.11" length="12.38" width="3.50" customShape="1" shape="-698.23,119.86 -699.44,122.10 -703.89,130.87"/>
    </edge>
    <edge id="31382" from="42" to="38" priority="3" type="highway.residential" spreadType="center" length="24.53" shape="-715.98,142.75 -692.02,103.62">
        <lane id="31382_0" index="0" disallow="pedestrian tram rail_urban rail rail_electric rail_fast ship" speed="36.11" length="24.71" width="3.50" customShape="1" shape="-715.60,138.46 -705.60,118.77 -704.35,116.46"/>
        <lane id="31382_1" index="1" disallow="pedestrian tram rail_urban rail rail_electric rail_fast ship" speed="36.11" length="24.53" width="3.50" customShape="1" shape="-712.46,140.02 -702.53,120.45 -701.30,118.18"/>
    </edge>
    <edge id="31405" from="39" to="40" priority="3" type="highway.residential" spreadType="center" length="12.85" shape="-660.29,76.87 -668.78,39.55">
        <lane id="31405_0" index="0" disallow="pedestrian tram rail_urban rail rail_electric rail_fast ship" speed="36.11" length="12.85" width="3.50" customShape="1" shape="-664.08,66.05 -665.34,61.34 -667.03,53.81 -667.05,53.69 -667.08,53.56"/>
    </edge>
    <edge id="31657" from="13" to="39" priority="3" type="highway.residential" spreadType="center" length="0.20" shape="-649.07,72.16 -657.14,79.67">
        <lane id="31657_0" index="0" disallow="pedestrian tram rail_urban rail rail_electric rail_fast ship" speed="36.11" length="0.20" width="3.50" customShape="1" shape="-648.72,74.03 -648.89,74.14"/>
        <lane id="31657_1" index="1" disallow="pedestrian tram rail_urban rail rail_electric rail_fast ship" speed="36.11" length="0.20" width="3.50" customShape="1" shape="-650.70,71.16 -650.87,71.27"/>
    </edge>
    <edge id="31690" from="40" to="18" priority="3" type="highway.residential" spreadType="center" length="8.32" shape="-668.73,39.75 -673.58,17.69">
        <lane id="31690_0" index="0" disallow="pedestrian tram rail_urban rail rail_electric rail_fast ship" speed="36.11" length="8.32" width="3.50" customShape="1" shape="-672.19,25.89 -672.89,21.78 -673.58,17.69"/>
    </edge>
    <edge id="31692" from="19" to="40" priority="3" type="highway.residential" spreadType="center" length="8.34" shape="-668.41,16.80 -663.56,39.03">
        <lane id="31692_0" index="0" disallow="pedestrian tram rail_urban rail rail_electric rail_fast ship" speed="36.11" length="8.34" width="3.50" customShape="1" shape="-666.69,16.50 -665.99,20.61 -665.29,24.72"/>
        <lane id="31692_1" index="1" disallow="pedestrian tram rail_urban rail rail_electric rail_fast ship" speed="36.11" length="8.34" width="3.50" customShape="1" shape="-670.14,17.09 -669.44,21.20 -668.74,25.31"/>
    </edge>
    <edge id="31792" from="40" to="39" priority="3" type="highway.residential" spreadType="center" length="12.24" shape="-663.73,38.16 -655.17,75.70">
        <lane id="31792_0" index="0" disallow="pedestrian tram rail_urban rail rail_electric rail_fast ship" speed="36.11" length="12.24" width="3.50" customShape="1" shape="-660.22,52.17 -660.20,52.29 -660.17,52.40 -658.55,59.63 -657.37,64.07"/>
        <lane id="31792_1" index="1" disallow="pedestrian tram rail_urban rail rail_electric rail_fast ship" speed="36.11" length="12.55" width="3.50" customShape="1" shape="-663.65,52.86 -663.62,52.99 -663.60,53.09 -661.94,60.50 -660.72,65.06"/>
    </edge>
    <edge id="31892" from="39" to="38" priority="3" type="highway.residential" spreadType="center" length="12.17" shape="-657.32,77.70 -687.98,106.93">
        <lane id="31892_0" index="0" disallow="pedestrian tram rail_urban rail rail_electric rail_fast ship" speed="36.11" length="12.17" width="3.50" customShape="1" shape="-666.51,86.15 -666.61,86.22 -666.70,86.29 -670.69,89.15 -674.68,92.01 -674.77,92.08 -674.87,92.16 -676.33,93.33"/>
    </edge>
    <edge id="32055" from="41" to="38" priority="3" type="highway.residential" spreadType="center" length="19.16">
        <lane id="32055_0" index="0" disallow="pedestrian tram rail_urban rail rail_electric rail_fast ship" speed="36.11" length="19.16" width="3.50" customShape="1" shape="-658.20,107.99 -662.16,103.95 -662.25,103.86 -664.23,102.06 -666.41,100.52 -668.79,99.32 -670.82,98.65 -672.92,98.24 -674.01,98.19"/>
    </edge>
    <edge id="32138" from="38" to="39" priority="3" type="highway.residential" spreadType="center" length="12.92" shape="-691.60,103.13 -660.78,73.76">
        <lane id="32138_0" index="0" disallow="pedestrian tram rail_urban rail rail_electric rail_fast ship" speed="36.11" length="13.69" width="3.50" customShape="1" shape="-681.51,88.51 -679.06,86.55 -678.96,86.47 -678.84,86.39 -674.77,83.47 -670.71,80.55 -670.59,80.46 -670.49,80.40"/>
        <lane id="32138_1" index="1" disallow="pedestrian tram rail_urban rail rail_electric rail_fast ship" speed="36.11" length="12.92" width="3.50" customShape="1" shape="-678.92,90.92 -676.96,89.35 -676.86,89.28 -676.76,89.20 -672.73,86.31 -668.70,83.42 -668.50,83.28"/>
    </edge>
    <edge id="33697" from="41" to="11" priority="3" type="highway.residential" spreadType="center" length="23.46" shape="-648.48,115.44 -637.13,161.81">
        <lane id="33697_0" index="0" disallow="pedestrian tram rail_urban rail rail_electric rail_fast ship" speed="36.11" length="23.46" width="3.50" customShape="1" shape="-641.22,137.19 -641.20,137.32 -641.17,137.45 -640.78,139.67 -637.37,160.33"/>
    </edge>
    <edge id="35276" from="39" to="34" priority="3" type="highway.residential" spreadType="center" length="14.42" shape="-659.76,75.18 -638.40,58.28">
        <lane id="35276_0" index="0" disallow="pedestrian tram rail_urban rail rail_electric rail_fast ship" speed="36.11" length="14.42" width="3.50" customShape="1" shape="-650.20,66.57 -644.17,62.43 -638.40,58.28"/>
    </edge>
    <edge id="35289" from="15" to="13" priority="3" type="highway.residential" spreadType="center" length="15.39">
        <lane id="35289_0" index="0" disallow="pedestrian tram rail_urban rail rail_electric rail_fast ship" speed="36.11" length="15.52" width="3.50" customShape="1" shape="-634.14,63.83 -640.06,68.09 -646.84,72.75"/>
        <lane id="35289_1" index="1" disallow="pedestrian tram rail_urban rail rail_electric rail_fast ship" speed="36.11" length="15.39" width="3.50" customShape="1" shape="-636.22,61.01 -642.09,65.24 -648.81,69.86"/>
    </edge>
    <edge id="36127" from="2" to="3" priority="3" type="highway.residential" spreadType="center" length="26.30">
        <lane id="36127_0" index="0" disallow="pedestrian tram rail_urban rail rail_electric rail_fast ship" speed="36.11" length="26.30" width="3.49" customShape="1" shape="-705.25,133.54 -705.54,134.11 -708.14,138.72 -716.53,151.93 -718.88,156.02"/>
    </edge>

    <junction id="10" type="dead_end" x="-762.04" y="213.27" incLanes="" intLanes="" shape="-760.67,214.37 -763.40,212.18" rightOfWay="edgePriority"/>
    <junction id="11" type="priority" x="-637.13" y="161.81" incLanes="33697_0" intLanes=":11_0_0" shape="-638.62,163.56 -635.16,163.01 -635.65,160.04 -639.10,160.61" rightOfWay="edgePriority">
        <request index="0" response="0" foes="0" cont="0"/>
    </junction>
    <junction id="12" type="dead_end" x="-632.26" y="192.24" incLanes="30825_0" intLanes="" shape="-630.53,191.96 -633.99,192.51" rightOfWay="edgePriority"/>
    <junction id="13" type="priority" x="-649.07" y="72.16" incLanes="35289_0 35289_1" intLanes=":13_0_0 :13_0_1" shape="-645.85,74.19 -649.80,68.42 -652.28,70.11 -648.35,75.88" rightOfWay="edgePriority">
        <request index="0" response="00" foes="00" cont="0"/>
        <request index="1" response="00" foes="00" cont="0"/>
    </junction>
    <junction id="15" type="dead_end" x="-635.20" y="62.43" incLanes="" intLanes="" shape="-637.24,59.59 -633.15,65.27" rightOfWay="edgePriority"/>
    <junction id="18" type="dead_end" x="-673.58" y="17.69" incLanes="31690_0" intLanes="" shape="-675.31,17.98 -671.86,17.40" rightOfWay="edgePriority"/>
    <junction id="19" type="dead_end" x="-668.41" y="16.80" incLanes="" intLanes="" shape="-671.86,17.38 -664.96,16.21" rightOfWay="edgePriority"/>
    <junction id="2" type="priority" x="-704.57" y="132.21" incLanes="31380_0" intLanes=":2_0_0" shape="-702.33,131.66 -705.45,130.08 -706.81,132.75 -703.70,134.34" rightOfWay="edgePriority">
        <request index="0" response="0" foes="0" cont="0"/>
    </junction>
    <junction id="23" type="priority" x="-642.31" y="162.63" incLanes="30823_0 30823_1" intLanes=":23_0_0 :23_0_1" shape="-645.53,164.66 -638.62,163.56 -639.11,160.58 -646.01,161.70" rightOfWay="edgePriority">
        <request index="0" response="00" foes="00" cont="0"/>
        <request index="1" response="00" foes="00" cont="0"/>
    </junction>
    <junction id="25" type="dead_end" x="-637.44" y="193.07" incLanes="" intLanes="" shape="-633.99,192.52 -640.90,193.63" rightOfWay="edgePriority"/>
    <junction id="3" type="priority" x="-719.61" y="157.29" incLanes="36127_0" intLanes=":3_0_0" shape="-717.36,156.89 -720.39,155.15 -721.84,157.77 -718.75,159.41" rightOfWay="edgePriority">
        <request index="0" response="0" foes="0" cont="0"/>
    </junction>
    <junction id="34" type="dead_end" x="-638.40" y="58.28" incLanes="35276_0" intLanes="" shape="-639.43,56.85 -637.38,59.70" rightOfWay="edgePriority"/>
    <junction id="38" type="priority" x="-689.19" y="105.67" incLanes="32055_0 31892_0 31382_0 31382_1" intLanes=":38_0_0 :38_1_0 :38_2_0 :38_2_1" shape="-673.77,99.95 -674.26,96.43 -675.67,96.16 -675.94,95.88 -675.93,95.52 -675.63,95.07 -675.04,94.53 -682.81,87.30 -688.87,92.25 -693.21,96.16 -696.45,99.75 -699.22,103.72 -702.16,108.79 -705.92,115.69 -696.69,120.69 -692.85,114.21 -689.01,108.93 -685.19,104.87 -681.37,102.02 -677.57,100.38">
        <request index="0" response="0010" foes="0010" cont="0"/>
        <request index="1" response="0000" foes="0001" cont="0"/>
        <request index="2" response="0000" foes="0000" cont="0"/>
        <request index="3" response="0000" foes="0000" cont="0"/>
    </junction>
    <junction id="39" type="priority" x="-658.58" y="76.48" incLanes="31317_0 31317_1 31657_0 31657_1 31792_0 31792_1 32138_0 32138_1" intLanes=":39_0_0 :39_1_0 :39_2_0 :39_3_0 :39_4_0 :39_5_0 :39_6_0 :39_7_0 :39_8_0 :39_9_0" shape="-659.72,88.20 -649.52,85.20 -645.21,73.77 -651.20,65.13 -653.15,65.96 -653.94,65.87 -654.62,65.43 -655.17,64.66 -655.60,63.55 -665.76,66.55 -665.39,68.89 -665.54,71.12 -666.23,73.25 -667.45,75.26 -669.20,77.17 -671.49,78.96 -665.51,87.59 -662.79,86.22 -661.72,86.12 -660.86,86.42 -660.19,87.11">
        <request index="0" response="1110011000" foes="1111011000" cont="0"/>
        <request index="1" response="1100111000" foes="1100111000" cont="0"/>
        <request index="2" response="0000000000" foes="1000100000" cont="0"/>
        <request index="3" response="0000000000" foes="1001100011" cont="0"/>
        <request index="4" response="0110000000" foes="0111100011" cont="0"/>
        <request index="5" response="1100011100" foes="1100011110" cont="0"/>
        <request index="6" response="1100011001" foes="1100011001" cont="0"/>
        <request index="7" response="0000000000" foes="0000010001" cont="0"/>
        <request index="8" response="0000000000" foes="0001110011" cont="0"/>
        <request index="9" response="0000001100" foes="0001101111" cont="0"/>
    </junction>
    <junction id="40" type="priority" x="-667.06" y="39.24" incLanes="31405_0 31692_0 31692_1" intLanes=":40_0_0 :40_1_0 :40_1_1" shape="-668.79,53.92 -658.51,51.82 -663.56,24.43 -673.91,26.18">
        <request index="0" response="000" foes="000" cont="0"/>
        <request index="1" response="000" foes="000" cont="0"/>
        <request index="2" response="000" foes="000" cont="0"/>
    </junction>