<!-- generated on Tue Feb  9 22:07:08 2021 by Eclipse SUMO netconvert Version 1.8.0
<configuration xmlns:xsi="http://www.w3.org/2001/XMLSchema-instance" xsi:noNamespaceSchemaLocation="http://sumo.dlr.de/xsd/netconvertConfiguration.xsd">

    <input>
        <node-files value="./converted_scenarios/scenario-factory/DEU_Moabit-1_2_I-1-1/DEU_Moabit-1_2_I-1-1.nod.xml"/>
        <edge-files value="./converted_scenarios/scenario-factory/DEU_Moabit-1_2_I-1-1/DEU_Moabit-1_2_I-1-1.edg.xml"/>
        <connection-files value="./converted_scenarios/scenario-factory/DEU_Moabit-1_2_I-1-1/DEU_Moabit-1_2_I-1-1.con.xml"/>
        <tllogic-files value="./converted_scenarios/scenario-factory/DEU_Moabit-1_2_I-1-1/DEU_Moabit-1_2_I-1-1.tll.xml"/>
        <type-files value="/home/zen/commonroad-interactive-benchmarks/install/commonroad-map-tool/crmapconverter/sumo_map/templates/DEU.typ.xml"/>
    </input>

    <output>
        <output-file value="./converted_scenarios/scenario-factory/DEU_Moabit-1_2_I-1-1/DEU_Moabit-1_2_I-1-1.net.xml"/>
    </output>

    <processing>
        <geometry.remove.keep-edges.explicit value="true"/>
        <geometry.avoid-overlap value="true"/>
        <offset.disable-normalization value="true"/>
    </processing>

    <junctions>
        <no-turnarounds value="true"/>
        <junctions.internal-link-detail value="20"/>
    </junctions>

    <report>
        <aggregate-warnings value="5"/>
    </report>

    <random_number>
        <seed value="1234"/>
    </random_number>

</configuration>
--><net xmlns:xsi="http://www.w3.org/2001/XMLSchema-instance" version="1.6" junctionCornerDetail="5" junctionLinkDetail="20" limitTurnSpeed="5.50" xsi:noNamespaceSchemaLocation="http://sumo.dlr.de/xsd/net_file.xsd">

    <location netOffset="0.00,0.00" convBoundary="793.19,680.76,1025.64,891.92" origBoundary="793.19,680.76,1025.64,891.92" projParameter="!"/>

    <type id="highway.bridleway" priority="1" speed="2.78" allow="pedestrian" oneway="1" width="2.00"/>
    <type id="highway.bus_guideway" priority="1" speed="27.78" allow="bus" oneway="1"/>
    <type id="highway.cycleway" priority="1" speed="8.33" allow="bicycle" oneway="0" width="1.00"/>
    <type id="highway.footway" priority="1" speed="2.78" allow="pedestrian" oneway="1" width="2.00"/>
    <type id="highway.ford" priority="1" speed="2.78" allow="army" oneway="0"/>
    <type id="highway.living_street" priority="2" speed="2.78" disallow="tram rail_urban rail rail_electric rail_fast ship" oneway="0"/>
    <type id="highway.motorway" priority="14" speed="39.44" allow="private emergency authority army vip passenger hov taxi bus coach delivery truck trailer motorcycle evehicle custom1 custom2" oneway="1"/>
    <type id="highway.motorway_link" priority="9" speed="22.22" allow="private emergency authority army vip passenger hov taxi bus coach delivery truck trailer motorcycle evehicle custom1 custom2" oneway="1"/>
    <type id="highway.path" priority="1" speed="2.78" allow="pedestrian bicycle" oneway="0" width="2.00"/>
    <type id="highway.pedestrian" priority="1" speed="2.78" allow="pedestrian" oneway="1" width="2.00"/>
    <type id="highway.primary" priority="12" speed="27.78" disallow="pedestrian tram rail_urban rail rail_electric rail_fast ship" oneway="0"/>
    <type id="highway.primary_link" priority="7" speed="22.22" disallow="pedestrian tram rail_urban rail rail_electric rail_fast ship" oneway="0"/>
    <type id="highway.raceway" priority="15" speed="83.33" allow="vip" oneway="0"/>
    <type id="highway.residential" priority="3" speed="13.89" disallow="pedestrian tram rail_urban rail rail_electric rail_fast ship" oneway="0"/>
    <type id="highway.secondary" priority="11" speed="27.78" disallow="pedestrian tram rail_urban rail rail_electric rail_fast ship" oneway="0"/>
    <type id="highway.secondary_link" priority="6" speed="22.22" disallow="pedestrian tram rail_urban rail rail_electric rail_fast ship" oneway="0"/>
    <type id="highway.service" priority="1" speed="5.56" allow="pedestrian delivery bicycle" oneway="0"/>
    <type id="highway.stairs" priority="1" speed="1.39" allow="pedestrian" oneway="1" width="2.00"/>
    <type id="highway.step" priority="1" speed="1.39" allow="pedestrian" oneway="1" width="2.00"/>
    <type id="highway.steps" priority="1" speed="1.39" allow="pedestrian" oneway="1" width="2.00"/>
    <type id="highway.tertiary" priority="10" speed="22.22" disallow="pedestrian tram rail_urban rail rail_electric rail_fast ship" oneway="0"/>
    <type id="highway.tertiary_link" priority="5" speed="22.22" disallow="pedestrian tram rail_urban rail rail_electric rail_fast ship" oneway="0"/>
    <type id="highway.track" priority="1" speed="5.56" allow="pedestrian motorcycle moped bicycle" oneway="0"/>
    <type id="highway.trunk" priority="13" speed="27.78" disallow="pedestrian bicycle tram rail_urban rail rail_electric rail_fast ship" oneway="0"/>
    <type id="highway.trunk_link" priority="8" speed="22.22" disallow="pedestrian bicycle tram rail_urban rail rail_electric rail_fast ship" oneway="0"/>
    <type id="highway.unclassified" priority="4" speed="13.89" disallow="pedestrian tram rail_urban rail rail_electric rail_fast ship" oneway="0"/>
    <type id="highway.unsurfaced" priority="1" speed="8.33" disallow="tram rail_urban rail rail_electric rail_fast ship" oneway="0"/>
    <type id="railway.highspeed" priority="21" speed="69.44" allow="rail_fast" oneway="1"/>
    <type id="railway.light_rail" priority="19" speed="27.78" allow="rail_urban" oneway="1"/>
    <type id="railway.preserved" priority="16" speed="27.78" allow="rail" oneway="1"/>
    <type id="railway.rail" priority="20" speed="44.44" allow="rail" oneway="1"/>
    <type id="railway.subway" priority="18" speed="27.78" allow="rail_urban" oneway="1"/>
    <type id="railway.tram" priority="17" speed="13.89" allow="tram" oneway="1"/>

    <edge id=":25_0" function="internal">
        <lane id=":25_0_0" index="0" disallow="pedestrian tram rail_urban rail rail_electric rail_fast ship" speed="36.11" length="40.52" width="3.50" shape="962.33,767.73 942.24,776.27 927.09,783.08 925.20,783.95"/>
    </edge>
    <edge id=":25_1" function="internal">
        <lane id=":25_1_0" index="0" disallow="pedestrian tram rail_urban rail rail_electric rail_fast ship" speed="11.47" length="38.95" width="3.50" shape="962.33,767.73 958.09,769.27 955.19,770.02 952.23,770.47 950.74,770.53 949.24,770.47 947.76,770.25 946.32,769.87 944.94,769.29 943.65,768.52 942.50,767.58 941.48,766.48 940.61,765.26 939.88,763.96 939.27,762.59 938.78,761.18 938.06,758.27 937.63,755.31 937.38,750.80"/>
    </edge>
    <edge id=":25_2" function="internal">
        <lane id=":25_2_0" index="0" disallow="pedestrian tram rail_urban rail rail_electric rail_fast ship" speed="10.41" length="31.80" width="3.50" shape="940.88,750.75 941.09,754.68 941.46,757.20 942.06,759.66 942.46,760.79 942.94,761.89 943.52,762.92 944.18,763.86 944.94,764.68 945.79,765.38 946.73,765.95 947.75,766.38 948.85,766.67 949.99,766.84 951.18,766.89 952.36,766.84 954.86,766.47 957.30,765.84 960.99,764.50"/>
    </edge>
    <edge id=":25_3" function="internal">
        <lane id=":25_3_0" index="0" disallow="pedestrian tram rail_urban rail rail_electric rail_fast ship" speed="15.71" length="38.97" width="3.50" shape="940.88,750.75 940.79,755.50 940.37,760.20 939.79,763.69 938.94,767.13 937.76,770.47 936.23,773.66 934.99,775.66 933.57,777.55 931.97,779.28 930.21,780.85 928.30,782.24 926.26,783.43 925.20,783.95"/>
    </edge>
    <edge id=":25_4" function="internal">
        <lane id=":25_4_0" index="0" disallow="pedestrian tram rail_urban rail rail_electric rail_fast ship" speed="14.90" length="34.96" width="3.50" shape="923.71,780.79 924.63,780.33 926.43,779.28 928.09,778.06 929.61,776.68 931.00,775.14 932.22,773.47 933.29,771.71 934.64,768.84 935.66,765.82 936.42,762.70 936.93,759.52 937.31,755.19 937.38,750.80"/>
    </edge>
    <edge id=":25_5" function="internal">
        <lane id=":25_5_0" index="0" disallow="pedestrian tram rail_urban rail rail_electric rail_fast ship" speed="36.11" length="40.69" width="3.50" shape="923.71,780.79 925.62,779.90 940.83,773.07 960.99,764.50"/>
    </edge>
    <edge id=":26_0" function="internal">
        <lane id=":26_0_0" index="0" disallow="pedestrian tram rail_urban rail rail_electric rail_fast ship" speed="10.81" length="29.53" width="3.50" shape="882.84,822.48 882.22,818.93 881.61,816.68 880.79,814.52 879.71,812.50 879.10,811.61 878.41,810.77 877.65,810.00 876.82,809.31 875.93,808.72 874.98,808.22 873.98,807.82 872.94,807.51 871.89,807.29 869.61,807.09 867.31,807.18 864.99,807.50 862.69,808.01"/>
    </edge>
    <edge id=":26_1" function="internal">
        <lane id=":26_1_0" index="0" disallow="pedestrian tram rail_urban rail rail_electric rail_fast ship" speed="36.11" length="42.89" width="3.50" shape="882.84,822.48 880.99,808.29 876.96,780.00"/>
    </edge>
    <edge id=":26_2" function="internal">
        <lane id=":26_2_0" index="0" disallow="pedestrian tram rail_urban rail rail_electric rail_fast ship" speed="14.98" length="39.80" width="3.50" shape="882.84,822.48 882.71,821.24 882.55,817.67 882.80,814.07 883.22,811.66 883.86,809.30 884.73,807.01 885.81,804.82 887.09,802.74 888.56,800.79 890.19,798.98 892.85,796.56 895.74,794.43 898.78,792.58 901.92,790.98"/>
    </edge>
    <edge id=":26_3" function="internal">
        <lane id=":26_3_0" index="0" disallow="pedestrian tram rail_urban rail rail_electric rail_fast ship" speed="14.14" length="35.36" width="3.50" shape="903.41,794.15 900.55,795.60 897.80,797.27 895.21,799.17 892.83,801.33 891.39,802.92 890.09,804.62 888.95,806.44 888.00,808.36 887.23,810.36 886.66,812.43 886.28,814.54 886.06,817.74 886.19,820.96 886.31,822.02"/>
    </edge>
    <edge id=":26_4" function="internal">
        <lane id=":26_4_0" index="0" disallow="pedestrian tram rail_urban rail rail_electric rail_fast ship" speed="36.11" length="43.07" width="3.50" shape="903.41,794.15 898.59,796.29 891.75,799.03 883.81,801.83 873.79,804.96 862.69,808.01"/>
    </edge>
    <edge id=":26_5" function="internal">
        <lane id=":26_5_0" index="0" disallow="pedestrian tram rail_urban rail rail_electric rail_fast ship" speed="11.51" length="37.15" width="3.50" shape="903.41,794.15 900.92,795.22 898.32,796.13 895.61,796.82 892.82,797.18 891.34,797.20 889.87,797.08 888.39,796.80 886.95,796.35 885.56,795.72 884.26,794.92 883.08,793.97 882.03,792.90 881.11,791.74 880.32,790.51 879.63,789.23 878.55,786.65 877.75,783.98 876.96,780.00"/>
    </edge>
    <edge id=":26_6" function="internal">
        <lane id=":26_6_0" index="0" disallow="pedestrian tram rail_urban rail rail_electric rail_fast ship" speed="10.46" length="30.41" width="3.50" shape="880.42,779.47 881.10,782.91 881.77,785.15 882.68,787.31 883.23,788.34 883.87,789.33 884.59,790.24 885.41,791.08 886.32,791.81 887.32,792.43 888.38,792.91 889.50,793.26 890.65,793.47 891.82,793.57 892.99,793.55 895.31,793.25 897.58,792.68 899.79,791.90 901.92,790.98"/>
    </edge>
    <edge id=":26_7" function="internal">
        <lane id=":26_7_0" index="0" disallow="pedestrian tram rail_urban rail rail_electric rail_fast ship" speed="36.11" length="42.96" width="3.50" shape="880.42,779.47 884.45,807.82 886.31,822.02"/>
    </edge>
    <edge id=":26_8" function="internal">
        <lane id=":26_8_0" index="0" disallow="pedestrian tram rail_urban rail rail_electric rail_fast ship" speed="13.36" length="37.61" width="3.50" shape="880.42,779.47 880.59,780.70 880.87,784.33 880.78,788.02 880.46,790.51 879.90,792.97 879.05,795.37 877.90,797.66 876.45,799.79 874.74,801.70 872.80,803.36 870.70,804.78 868.49,805.95 866.18,806.92 862.69,808.01"/>
    </edge>
    <edge id=":26_9" function="internal">
        <lane id=":26_9_0" index="0" disallow="pedestrian tram rail_urban rail rail_electric rail_fast ship" speed="12.44" length="32.45" width="3.50" shape="861.77,804.64 864.89,803.66 866.89,802.82 868.80,801.80 870.59,800.59 872.22,799.17 873.66,797.56 874.87,795.77 875.83,793.83 876.54,791.79 877.02,789.68 877.29,787.53 877.36,784.29 877.11,781.05 876.96,780.00"/>
    </edge>
    <edge id=":26_10" function="internal">
        <lane id=":26_10_0" index="0" disallow="pedestrian tram rail_urban rail rail_electric rail_fast ship" speed="36.11" length="42.46" width="3.50" shape="861.77,804.63 872.78,801.61 882.67,798.53 890.48,795.77 897.21,793.08 901.92,790.98"/>
    </edge>
    <edge id=":26_11" function="internal">
        <lane id=":26_11_0" index="0" disallow="pedestrian tram rail_urban rail rail_electric rail_fast ship" speed="11.84" length="35.63" width="3.50" shape="861.77,804.63 864.47,804.03 867.19,803.65 869.92,803.55 872.65,803.78 873.99,804.05 875.31,804.44 876.58,804.95 877.79,805.58 878.93,806.34 879.99,807.21 880.96,808.18 881.83,809.23 882.61,810.36 883.90,812.78 884.88,815.33 885.60,817.97 886.31,822.02"/>
    </edge>

    <edge id="107270" from="25" to="16" priority="3" type="highway.residential" spreadType="center" length="70.00" shape="940.00,766.53 936.40,680.81">
        <lane id="107270_0" index="0" disallow="pedestrian tram rail_urban rail rail_electric rail_fast ship" speed="36.11" length="70.00" width="3.50" customShape="1" shape="937.38,750.80 936.40,680.81"/>
    </edge>
    <edge id="107271" from="22" to="25" priority="3" type="highway.residential" spreadType="center" length="70.01" shape="939.90,680.76 943.49,766.38">
        <lane id="107271_0" index="0" disallow="pedestrian tram rail_urban rail rail_electric rail_fast ship" speed="36.11" length="70.01" width="3.50" customShape="1" shape="939.90,680.76 940.88,750.76"/>
    </edge>
    <edge id="107371" from="26" to="15" priority="3" type="highway.residential" spreadType="center" length="70.00" shape="883.77,799.97 895.09,891.47">
        <lane id="107371_0" index="0" disallow="pedestrian tram rail_urban rail rail_electric rail_fast ship" speed="36.11" length="70.00" width="3.50" customShape="1" shape="886.31,822.02 890.85,857.94 895.09,891.47"/>
    </edge>
    <edge id="107372" from="21" to="26" priority="3" type="highway.residential" spreadType="center" length="70.01" shape="891.62,891.92 880.30,800.40">
        <lane id="107372_0" index="0" disallow="pedestrian tram rail_urban rail rail_electric rail_fast ship" speed="36.11" length="70.01" width="3.50" customShape="1" shape="891.62,891.92 887.38,858.38 882.84,822.46"/>
    </edge>
    <edge id="107667" from="26" to="13" priority="3" type="highway.residential" spreadType="center" length="70.00" shape="882.39,801.93 794.07,818.29">
        <lane id="107667_0" index="0" disallow="pedestrian tram rail_urban rail rail_electric rail_fast ship" speed="36.11" length="70.00" width="3.50" customShape="1" shape="862.69,808.01 838.47,814.59 829.51,816.72 822.46,818.04 816.38,818.86 810.76,819.29 805.14,819.36 800.03,819.09 794.95,818.46 794.07,818.29"/>
    </edge>
    <edge id="107668" from="23" to="26" priority="3" type="highway.residential" spreadType="center" length="70.00" shape="793.19,814.56 881.76,798.49">
        <lane id="107668_0" index="0" disallow="pedestrian tram rail_urban rail rail_electric rail_fast ship" speed="36.11" length="70.00" width="3.50" customShape="1" shape="793.19,814.56 794.95,814.92 799.89,815.56 804.87,815.85 810.37,815.80 815.86,815.39 821.84,814.60 828.78,813.29 837.66,811.19 861.79,804.63"/>
    </edge>
    <edge id="108067" from="25" to="26" priority="3" type="highway.residential" spreadType="center" length="24.07" shape="942.61,767.94 882.87,801.76">
        <lane id="108067_0" index="0" disallow="pedestrian tram rail_urban rail rail_electric rail_fast ship" speed="36.11" length="24.07" width="3.50" customShape="1" shape="925.20,783.95 914.31,789.05 903.40,794.15"/>
    </edge>
    <edge id="108068" from="26" to="25" priority="3" type="highway.residential" spreadType="center" length="24.07" shape="881.14,798.72 940.88,764.90">
        <lane id="108068_0" index="0" disallow="pedestrian tram rail_urban rail rail_electric rail_fast ship" speed="36.11" length="24.07" width="3.50" customShape="1" shape="901.92,790.98 912.83,785.88 923.72,780.78"/>
    </edge>
    <edge id="108070" from="24" to="25" priority="3" type="highway.residential" spreadType="center" length="68.60" shape="1025.64,741.37 942.24,768.10">
        <lane id="108070_0" index="0" disallow="pedestrian tram rail_urban rail rail_electric rail_fast ship" speed="36.11" length="68.60" width="3.50" customShape="1" shape="1025.64,741.37 993.98,754.56 962.31,767.74"/>
    </edge>
    <edge id="108071" from="25" to="17" priority="3" type="highway.residential" spreadType="center" length="68.58" shape="941.18,764.77 1024.30,738.14">
        <lane id="108071_0" index="0" disallow="pedestrian tram rail_urban rail rail_electric rail_fast ship" speed="36.11" length="68.58" width="3.50" customShape="1" shape="960.99,764.50 992.63,751.32 1024.30,738.14"/>
    </edge>
    <edge id="108421" from="20" to="26" priority="3" type="highway.residential" spreadType="center" length="70.01" shape="870.16,710.23 883.78,799.99">
        <lane id="108421_0" index="0" disallow="pedestrian tram rail_urban rail rail_electric rail_fast ship" speed="36.11" length="70.01" width="3.50" customShape="1" shape="870.16,710.23 873.45,732.59 880.43,779.48"/>
    </edge>
    <edge id="108422" from="26" to="14" priority="3" type="highway.residential" spreadType="center" length="70.00" shape="880.32,800.51 866.70,710.76">
        <lane id="108422_0" index="0" disallow="pedestrian tram rail_urban rail rail_electric rail_fast ship" speed="36.11" length="70.00" width="3.50" customShape="1" shape="876.96,780.00 869.98,733.10 866.70,710.76"/>
    </edge>

    <junction id="13" type="dead_end" x="794.07" y="818.29" incLanes="107667_0" intLanes="" shape="793.73,820.01 794.40,816.58" rightOfWay="edgePriority"/>
    <junction id="14" type="dead_end" x="866.70" y="710.76" incLanes="108422_0" intLanes="" shape="864.97,711.01 868.43,710.50" rightOfWay="edgePriority"/>
    <junction id="15" type="dead_end" x="895.09" y="891.47" incLanes="107371_0" intLanes="" shape="896.82,891.25 893.35,891.69" rightOfWay="edgePriority"/>
    <junction id="16" type="dead_end" x="936.40" y="680.81" incLanes="107270_0" intLanes="" shape="934.65,680.84 938.15,680.79" rightOfWay="edgePriority"/>
    <junction id="17" type="dead_end" x="1024.30" y="738.14" incLanes="108071_0" intLanes="" shape="1023.63,736.53 1024.97,739.76" rightOfWay="edgePriority"/>
    <junction id="20" type="dead_end" x="870.16" y="710.23" incLanes="" intLanes="" shape="868.43,710.48 871.89,709.97" rightOfWay="edgePriority"/>
    <junction id="21" type="dead_end" x="891.62" y="891.92" incLanes="" intLanes="" shape="893.35,891.70 889.88,892.14" rightOfWay="edgePriority"/>
    <junction id="22" type="dead_end" x="939.90" y="680.76" incLanes="" intLanes="" shape="938.15,680.78 941.65,680.73" rightOfWay="edgePriority"/>
    <junction id="23" type="dead_end" x="793.19" y="814.56" incLanes="" intLanes="" shape="792.84,816.27 793.54,812.84" rightOfWay="edgePriority"/>
    <junction id="24" type="dead_end" x="1025.64" y="741.37" incLanes="" intLanes="" shape="1024.97,739.76 1026.32,742.99" rightOfWay="edgePriority"/>
    <junction id="25" type="priority" x="941.74" y="766.42" incLanes="108070_0 107271_0 108068_0" intLanes=":25_0_0 :25_1_0 :25_2_0 :25_3_0 :25_4_0 :25_5_0" shape="963.00,769.34 960.31,762.88 954.99,764.56 950.61,764.75 947.18,763.47 944.71,760.70 943.19,756.46 942.63,750.73 935.63,750.83 935.36,757.81 934.36,763.89 932.62,769.07 930.14,773.35 926.93,776.73 922.98,779.20 925.94,785.54">
        <request index="0" response="000000" foes="001000" cont="0"/>
        <request index="1" response="110000" foes="111000" cont="0"/>
        <request index="2" response="100000" foes="100000" cont="0"/>
        <request index="3" response="100011" foes="100011" cont="0"/>
        <request index="4" response="000000" foes="000010" cont="0"/>
        <request index="5" response="000000" foes="001110" cont="0"/>
    </junction>
    <junction id="26" type="priority" x="882.04" y="800.22" incLanes="107372_0 108067_0 108421_0 107668_0" intLanes=":26_0_0 :26_1_0 :26_2_0 :26_3_0 :26_4_0 :26_5_0 :26_6_0 :26_7_0 :26_8_0 :26_9_0 :26_10_0 :26_11_0" shape="881.10,822.68 888.05,821.80 887.88,816.22 888.85,811.13 890.97,806.54 894.22,802.44 898.61,798.84 904.15,795.74 901.18,789.40 896.11,791.24 891.79,791.67 888.24,790.68 885.45,788.28 883.42,784.46 882.16,779.23 875.23,780.26 875.60,785.93 874.89,790.85 873.11,795.01 870.25,798.42 866.32,801.06 861.31,802.95 863.14,809.70 868.03,808.87 872.15,809.24 875.52,810.80 878.14,813.56 880.00,817.52">
        <request index="0" response="000000000000" foes="000100010000" cont="0"/>
        <request index="1" response="000000000000" foes="111100110000" cont="0"/>
        <request index="2" response="000011000000" foes="110011110000" cont="0"/>
        <request index="3" response="000010000000" foes="100010000000" cont="0"/>
        <request index="4" response="000110000111" foes="100110000111" cont="0"/>
        <request index="5" response="011110000110" foes="011110000110" cont="0"/>
        <request index="6" response="000000000000" foes="010000000100" cont="0"/>
        <request index="7" response="000000000000" foes="110000111100" cont="0"/>
        <request index="8" response="000000000011" foes="110000110011" cont="0"/>
        <request index="9" response="000000000010" foes="000000100010" cont="0"/>
        <request index="10" response="000111000110" foes="000111100110" cont="0"/>
        <request index="11" response="000110011110" foes="000110011110" cont="0"/>
    </junction>

    <connection from="107271" to="108071" fromLane="0" toLane="0" contPos="-4.00" shape="940.88,750.75 941.09,754.68 941.46,757.20 942.06,759.66 942.46,760.79 942.94,761.89 943.52,762.92 944.18,763.86 944.94,764.68 945.79,765.38 946.73,765.95 947.75,766.38 948.85,766.67 949.99,766.84 951.18,766.89 952.36,766.84 954.86,766.47 957.30,765.84 960.99,764.50" via=":25_2_0" dir="r" state="m"/>
    <connection from="107271" to="108067" fromLane="0" toLane="0" contPos="-4.00" shape="940.88,750.75 940.79,755.50 940.37,760.20 939.79,763.69 938.94,767.13 937.76,770.47 936.23,773.66 934.99,775.66 933.57,777.55 931.97,779.28 930.21,780.85 928.30,782.24 926.26,783.43 925.20,783.95" via=":25_3_0" dir="l" state="m"/>
    <connection from="107372" to="107667" fromLane="0" toLane="0" contPos="-4.00" shape="882.84,822.48 882.22,818.93 881.61,816.68 880.79,814.52 879.71,812.50 879.10,811.61 878.41,810.77 877.65,810.00 876.82,809.31 875.93,808.72 874.98,808.22 873.98,807.82 872.94,807.51 871.89,807.29 869.61,807.09 867.31,807.18 864.99,807.50 862.69,808.01" via=":26_0_0" dir="r" state="M"/>
    <connection from="107372" to="108422" fromLane="0" toLane="0" contPos="-4.00" shape="882.84,822.48 880.99,808.29 876.96,780.00" via=":26_1_0" dir="s" state="M"/>
    <connection from="107372" to="108068" fromLane="0" toLane="0" contPos="-4.00" shape="882.84,822.48 882.71,821.24 882.55,817.67 882.80,814.07 883.22,811.66 883.86,809.30 884.73,807.01 885.81,804.82 887.09,802.74 888.56,800.79 890.19,798.98 892.85,796.56 895.74,794.43 898.78,792.58 901.92,790.98" via=":26_2_0" dir="l" state="m"/>
    <connection from="107668" to="108422" fromLane="0" toLane="0" contPos="-4.00" shape="861.79,804.63 864.89,803.66 866.89,802.82 868.80,801.80 870.59,800.59 872.22,799.17 873.66,797.56 874.87,795.77 875.83,793.83 876.54,791.79 877.02,789.68 877.29,787.53 877.36,784.29 877.11,781.05 876.96,780.00" via=":26_9_0" dir="r" state="m"/>
    <connection from="107668" to="108068" fromLane="0" toLane="0" contPos="-4.00" shape="861.79,804.63 872.78,801.61 882.67,798.53 890.48,795.77 897.21,793.08 901.92,790.98" via=":26_10_0" dir="s" state="m"/>
    <connection from="107668" to="107371" fromLane="0" toLane="0" contPos="-4.00" shape="861.79,804.63 864.47,804.03 867.19,803.65 869.92,803.55 872.65,803.78 873.99,804.05 875.31,804.44 876.58,804.95 877.79,805.58 878.93,806.34 879.99,807.21 880.96,808.18 881.83,809.23 882.61,810.36 883.90,812.78 884.88,815.33 885.60,817.97 886.31,822.02" via=":26_11_0" dir="l" state="m"/>
    <connection from="108067" to="107371" fromLane="0" toLane="0" contPos="-4.00" shape="903.40,794.15 900.55,795.60 897.80,797.27 895.21,799.17 892.83,801.33 891.39,802.92 890.09,804.62 888.95,806.44 888.00,808.36 887.23,810.36 886.66,812.43 886.28,814.54 886.06,817.74 886.19,820.96 886.31,822.02" via=":26_3_0" dir="r" state="m"/>
    <connection from="108067" to="107667" fromLane="0" toLane="0" contPos="-4.00" shape="903.40,794.15 898.59,796.29 891.75,799.03 883.81,801.83 873.79,804.96 862.69,808.01" via=":26_4_0" dir="s" state="m"/>
    <connection from="108067" to="108422" fromLane="0" toLane="0" contPos="-4.00" shape="903.40,794.15 900.92,795.22 898.32,796.13 895.61,796.82 892.82,797.18 891.34,797.20 889.87,797.08 888.39,796.80 886.95,796.35 885.56,795.72 884.26,794.92 883.08,793.97 882.03,792.90 881.11,791.74 880.32,790.51 879.63,789.23 878.55,786.65 877.75,783.98 876.96,780.00" via=":26_5_0" dir="l" state="m"/>
    <connection from="108068" to="107270" fromLane="0" toLane="0" contPos="-4.00" shape="923.71,780.79 924.63,780.33 926.43,779.28 928.09,778.06 929.61,776.68 931.00,775.14 932.22,773.47 933.29,771.71 934.64,768.84 935.66,765.82 936.42,762.70 936.93,759.52 937.31,755.19 937.38,750.80" via=":25_4_0" dir="r" state="M"/>
    <connection from="108068" to="108071" fromLane="0" toLane="0" contPos="-4.00" shape="923.71,780.79 925.62,779.90 940.83,773.07 960.99,764.50" via=":25_5_0" dir="s" state="M"/>
    <connection from="108070" to="108067" fromLane="0" toLane="0" contPos="-4.00" shape="962.31,767.74 942.24,776.27 927.09,783.08 925.20,783.95" via=":25_0_0" dir="s" state="M"/>
    <connection from="108070" to="107270" fromLane="0" toLane="0" contPos="-4.00" shape="962.31,767.74 958.09,769.27 955.19,770.02 952.23,770.47 950.74,770.53 949.24,770.47 947.76,770.25 946.32,769.87 944.94,769.29 943.65,768.52 942.50,767.58 941.48,766.48 940.61,765.26 939.88,763.96 939.27,762.59 938.78,761.18 938.06,758.27 937.63,755.31 937.38,750.80" via=":25_1_0" dir="l" state="m"/>
    <connection from="108421" to="108068" fromLane="0" toLane="0" contPos="-4.00" shape="880.42,779.47 881.10,782.91 881.77,785.15 882.68,787.31 883.23,788.34 883.87,789.33 884.59,790.24 885.41,791.08 886.32,791.81 887.32,792.43 888.38,792.91 889.50,793.26 890.65,793.47 891.82,793.57 892.99,793.55 895.31,793.25 897.58,792.68 899.79,791.90 901.92,790.98" via=":26_6_0" dir="r" state="M"/>
    <connection from="108421" to="107371" fromLane="0" toLane="0" contPos="-4.00" shape="880.42,779.47 884.45,807.82 886.31,822.02" via=":26_7_0" dir="s" state="M"/>
    <connection from="108421" to="107667" fromLane="0" toLane="0" contPos="-4.00" shape="880.42,779.47 880.59,780.70 880.87,784.33 880.78,788.02 880.46,790.51 879.90,792.97 879.05,795.37 877.90,797.66 876.45,799.79 874.74,801.70 872.80,803.36 870.70,804.78 868.49,805.95 866.18,806.92 862.69,808.01" via=":26_8_0" dir="l" state="m"/>

    <connection from=":25_0" to="108067" fromLane="0" toLane="0" dir="s" state="M"/>
    <connection from=":25_1" to="107270" fromLane="0" toLane="0" dir="l" state="M"/>
    <connection from=":25_2" to="108071" fromLane="0" toLane="0" dir="r" state="M"/>
    <connection from=":25_3" to="108067" fromLane="0" toLane="0" dir="l" state="M"/>
    <connection from=":25_4" to="107270" fromLane="0" toLane="0" dir="r" state="M"/>
    <connection from=":25_5" to="108071" fromLane="0" toLane="0" dir="s" state="M"/>
    <connection from=":26_0" to="107667" fromLane="0" toLane="0" dir="r" state="M"/>
    <connection from=":26_1" to="108422" fromLane="0" toLane="0" dir="s" state="M"/>
    <connection from=":26_2" to="108068" fromLane="0" toLane="0" dir="l" state="M"/>
    <connection from=":26_3" to="107371" fromLane="0" toLane="0" dir="r" state="M"/>
    <connection from=":26_4" to="107667" fromLane="0" toLane="0" dir="s" state="M"/>
    <connection from=":26_5" to="108422" fromLane="0" toLane="0" dir="l" state="M"/>
    <connection from=":26_6" to="108068" fromLane="0" toLane="0" dir="r" state="M"/>
    <connection from=":26_7" to="107371" fromLane="0" toLane="0" dir="s" state="M"/>
    <connection from=":26_8" to="107667" fromLane="0" toLane="0" dir="l" state="M"/>
    <connection from=":26_9" to="108422" fromLane="0" toLane="0" dir="r" state="M"/>
    <connection from=":26_10" to="108068" fromLane="0" toLane="0" dir="s" state="M"/>
    <connection from=":26_11" to="107371" fromLane="0" toLane="0" dir="l" state="M"/>

</net>