<routes>
	<vehicle depart="0.1" departLane="0" departPos="36.429774161511354" departSpeed="0.37487961" id="329" type="bicycle">
		<route edges="107372 108068"/>
	</vehicle>
	<vehicle depart="0.1" departLane="0" departPos="25.809058691685138" departSpeed="0.70045187" id="311" type="passenger">
		<route edges=":26_0 107667"/>
	</vehicle>
	<vehicle depart="0.1" departLane="0" departPos="9.646115283089024" departSpeed="0.4528928" id="313" type="passenger">
		<route edges=":26_0 107667"/>
	</vehicle>
	<vehicle depart="0.1" departLane="0" departPos="70.50059388548291" departSpeed="0.44932754" id="314" type="passenger">
		<route edges="107372 108068"/>
	</vehicle>
	<vehicle depart="0.1" departLane="0" departPos="61.45795725548027" departSpeed="0.18094744" id="316" type="passenger">
		<route edges="107372 108068"/>
	</vehicle>
	<vehicle depart="0.1" departLane="0" departPos="46.61734773421268" departSpeed="1.6135884" id="328" type="passenger">
		<route edges="107372 108068"/>
	</vehicle>
	<vehicle depart="0.1" departLane="0" departPos="5.340622118670318" departSpeed="7.6171123" id="346" type="passenger">
		<route edges=":26_6 108068 107270"/>
	</vehicle>
	<vehicle depart="0.1" departLane="0" departPos="44.62566788063398" departSpeed="13.024894" id="349" type="passenger">
		<route edges="108421 107371"/>
	</vehicle>
	<vehicle depart="0.1" departLane="0" departPos="7.04664899605197" departSpeed="0.97775767" id="30" type="truck">
		<route edges=":26_11 107371"/>
	</vehicle>
</routes>
