<!-- generated on Wed Feb 10 12:36:20 2021 by Eclipse SUMO netconvert Version 1.8.0
<configuration xmlns:xsi="http://www.w3.org/2001/XMLSchema-instance" xsi:noNamespaceSchemaLocation="http://sumo.dlr.de/xsd/netconvertConfiguration.xsd">

    <input>
        <node-files value="./converted_scenarios/SUMO/DEU_Flensburg-41_1_I-1-1/DEU_Flensburg-41_1_I-1-1.nod.xml"/>
        <edge-files value="./converted_scenarios/SUMO/DEU_Flensburg-41_1_I-1-1/DEU_Flensburg-41_1_I-1-1.edg.xml"/>
        <connection-files value="./converted_scenarios/SUMO/DEU_Flensburg-41_1_I-1-1/DEU_Flensburg-41_1_I-1-1.con.xml"/>
        <tllogic-files value="./converted_scenarios/SUMO/DEU_Flensburg-41_1_I-1-1/DEU_Flensburg-41_1_I-1-1.tll.xml"/>
        <type-files value="/home/zen/commonroad-interactive-benchmarks/install/commonroad-map-tool/crmapconverter/sumo_map/templates/DEU.typ.xml"/>
    </input>

    <output>
        <output-file value="./converted_scenarios/SUMO/DEU_Flensburg-41_1_I-1-1/DEU_Flensburg-41_1_I-1-1.net.xml"/>
    </output>

    <processing>
        <geometry.remove.keep-edges.explicit value="true"/>
        <geometry.avoid-overlap value="true"/>
        <offset.disable-normalization value="true"/>
    </processing>

    <junctions>
        <no-turnarounds value="true"/>
        <junctions.internal-link-detail value="20"/>
    </junctions>

    <report>
        <aggregate-warnings value="5"/>
    </report>

    <random_number>
        <seed value="1234"/>
    </random_number>

</configuration>
--><net xmlns:xsi="http://www.w3.org/2001/XMLSchema-instance" version="1.6" junctionCornerDetail="5" junctionLinkDetail="20" limitTurnSpeed="5.50" xsi:noNamespaceSchemaLocation="http://sumo.dlr.de/xsd/net_file.xsd">

    <location netOffset="0.00,0.00" convBoundary="-404.49,358.86,-300.90,474.12" origBoundary="-404.49,358.86,-300.90,474.12" projParameter="!"/>

    <type id="highway.bridleway" priority="1" speed="2.78" allow="pedestrian" oneway="1" width="2.00"/>
    <type id="highway.bus_guideway" priority="1" speed="27.78" allow="bus" oneway="1"/>
    <type id="highway.cycleway" priority="1" speed="8.33" allow="bicycle" oneway="0" width="1.00"/>
    <type id="highway.footway" priority="1" speed="2.78" allow="pedestrian" oneway="1" width="2.00"/>
    <type id="highway.ford" priority="1" speed="2.78" allow="army" oneway="0"/>
    <type id="highway.living_street" priority="2" speed="2.78" disallow="tram rail_urban rail rail_electric rail_fast ship" oneway="0"/>
    <type id="highway.motorway" priority="14" speed="39.44" allow="private emergency authority army vip passenger hov taxi bus coach delivery truck trailer motorcycle evehicle custom1 custom2" oneway="1"/>
    <type id="highway.motorway_link" priority="9" speed="22.22" allow="private emergency authority army vip passenger hov taxi bus coach delivery truck trailer motorcycle evehicle custom1 custom2" oneway="1"/>
    <type id="highway.path" priority="1" speed="2.78" allow="pedestrian bicycle" oneway="0" width="2.00"/>
    <type id="highway.pedestrian" priority="1" speed="2.78" allow="pedestrian" oneway="1" width="2.00"/>
    <type id="highway.primary" priority="12" speed="27.78" disallow="pedestrian tram rail_urban rail rail_electric rail_fast ship" oneway="0"/>
    <type id="highway.primary_link" priority="7" speed="22.22" disallow="pedestrian tram rail_urban rail rail_electric rail_fast ship" oneway="0"/>
    <type id="highway.raceway" priority="15" speed="83.33" allow="vip" oneway="0"/>
    <type id="highway.residential" priority="3" speed="13.89" disallow="pedestrian tram rail_urban rail rail_electric rail_fast ship" oneway="0"/>
    <type id="highway.secondary" priority="11" speed="27.78" disallow="pedestrian tram rail_urban rail rail_electric rail_fast ship" oneway="0"/>
    <type id="highway.secondary_link" priority="6" speed="22.22" disallow="pedestrian tram rail_urban rail rail_electric rail_fast ship" oneway="0"/>
    <type id="highway.service" priority="1" speed="5.56" allow="pedestrian delivery bicycle" oneway="0"/>
    <type id="highway.stairs" priority="1" speed="1.39" allow="pedestrian" oneway="1" width="2.00"/>
    <type id="highway.step" priority="1" speed="1.39" allow="pedestrian" oneway="1" width="2.00"/>
    <type id="highway.steps" priority="1" speed="1.39" allow="pedestrian" oneway="1" width="2.00"/>
    <type id="highway.tertiary" priority="10" speed="22.22" disallow="pedestrian tram rail_urban rail rail_electric rail_fast ship" oneway="0"/>
    <type id="highway.tertiary_link" priority="5" speed="22.22" disallow="pedestrian tram rail_urban rail rail_electric rail_fast ship" oneway="0"/>
    <type id="highway.track" priority="1" speed="5.56" allow="pedestrian motorcycle moped bicycle" oneway="0"/>
    <type id="highway.trunk" priority="13" speed="27.78" disallow="pedestrian bicycle tram rail_urban rail rail_electric rail_fast ship" oneway="0"/>
    <type id="highway.trunk_link" priority="8" speed="22.22" disallow="pedestrian bicycle tram rail_urban rail rail_electric rail_fast ship" oneway="0"/>
    <type id="highway.unclassified" priority="4" speed="13.89" disallow="pedestrian tram rail_urban rail rail_electric rail_fast ship" oneway="0"/>
    <type id="highway.unsurfaced" priority="1" speed="8.33" disallow="tram rail_urban rail rail_electric rail_fast ship" oneway="0"/>
    <type id="railway.highspeed" priority="21" speed="69.44" allow="rail_fast" oneway="1"/>
    <type id="railway.light_rail" priority="19" speed="27.78" allow="rail_urban" oneway="1"/>
    <type id="railway.preserved" priority="16" speed="27.78" allow="rail" oneway="1"/>
    <type id="railway.rail" priority="20" speed="44.44" allow="rail" oneway="1"/>
    <type id="railway.subway" priority="18" speed="27.78" allow="rail_urban" oneway="1"/>
    <type id="railway.tram" priority="17" speed="13.89" allow="tram" oneway="1"/>

    <edge id=":26_0" function="internal">
        <lane id=":26_0_0" index="0" disallow="pedestrian tram rail_urban rail rail_electric rail_fast ship" speed="6.89" length="10.94" width="3.50" shape="-378.18,419.09 -379.74,418.52 -381.25,418.19 -382.16,418.15 -383.02,418.24 -383.80,418.52 -384.48,418.94 -385.08,419.54 -385.61,420.30 -386.05,421.16 -386.58,422.66"/>
    </edge>
    <edge id=":26_1" function="internal">
        <lane id=":26_1_0" index="0" disallow="pedestrian tram rail_urban rail rail_electric rail_fast ship" speed="36.11" length="17.17" width="3.49" shape="-378.24,419.07 -378.99,418.76 -379.75,418.41 -380.53,418.04 -381.33,417.64 -382.14,417.22 -382.96,416.79 -383.78,416.33 -384.61,415.87 -385.45,415.40 -386.28,414.92 -387.11,414.44 -387.94,413.97 -388.76,413.50 -389.57,413.04 -390.37,412.59 -391.15,412.16 -391.91,411.75 -392.66,411.36 -393.38,411.00"/>
    </edge>
    <edge id=":26_2" function="internal">
        <lane id=":26_2_0" index="0" disallow="pedestrian tram rail_urban rail rail_electric rail_fast ship" speed="9.42" length="18.55" width="3.50" shape="-378.18,419.10 -378.85,418.79 -380.52,417.87 -382.10,416.68 -383.48,415.21 -384.27,413.99 -385.06,412.11 -385.46,410.12 -385.52,408.15 -385.30,406.23 -384.74,403.81"/>
    </edge>
    <edge id=":26_3" function="internal">
        <lane id=":26_3_0" index="0" disallow="pedestrian tram rail_urban rail rail_electric rail_fast ship" speed="8.07" length="13.33" width="3.50" shape="-381.38,404.80 -381.82,406.66 -381.99,408.08 -381.96,409.51 -381.70,410.91 -381.16,412.24 -380.65,413.04 -379.69,414.10 -378.56,414.96 -377.30,415.65 -376.88,415.84"/>
    </edge>
    <edge id=":26_4" function="internal">
        <lane id=":26_4_0" index="0" disallow="pedestrian tram rail_urban rail rail_electric rail_fast ship" speed="36.11" length="18.60" width="3.50" shape="-381.38,404.80 -383.98,413.73 -386.58,422.66"/>
    </edge>
    <edge id=":26_5" function="internal">
        <lane id=":26_5_0" index="0" disallow="pedestrian tram rail_urban rail rail_electric rail_fast ship" speed="8.28" length="15.64" width="3.50" shape="-381.38,404.81 -381.69,405.76 -382.04,406.64 -382.42,407.45 -382.84,408.19 -383.29,408.86 -383.78,409.46 -384.30,410.00 -384.86,410.46 -385.46,410.86 -386.09,411.19 -386.76,411.44 -387.46,411.63 -388.20,411.75 -388.97,411.80 -389.78,411.78 -390.63,411.69 -391.51,411.54 -392.43,411.31 -393.38,411.01"/>
    </edge>
    <edge id=":26_6" function="internal">
        <lane id=":26_6_0" index="0" disallow="pedestrian tram rail_urban rail rail_electric rail_fast ship" speed="6.61" length="10.09" width="3.50" shape="-392.16,407.72 -390.43,408.33 -389.53,408.49 -388.66,408.49 -387.89,408.33 -387.18,407.94 -386.54,407.39 -386.00,406.67 -385.27,405.31 -384.74,403.81"/>
    </edge>
    <edge id=":26_7" function="internal">
        <lane id=":26_7_0" index="0" disallow="pedestrian tram rail_urban rail rail_electric rail_fast ship" speed="36.11" length="17.31" width="3.50" shape="-392.16,407.72 -388.29,409.59 -380.05,414.32 -376.88,415.84"/>
    </edge>
    <edge id=":26_8" function="internal">
        <lane id=":26_8_0" index="0" disallow="pedestrian tram rail_urban rail rail_electric rail_fast ship" speed="9.36" length="17.76" width="3.50" shape="-392.16,407.72 -390.66,408.45 -389.01,409.60 -387.99,410.61 -387.14,411.78 -386.50,413.05 -386.07,414.41 -385.77,416.39 -385.78,418.35 -386.02,420.25 -386.58,422.66"/>
    </edge>
    <edge id=":26_9" function="internal">
        <lane id=":26_9_0" index="0" disallow="pedestrian tram rail_urban rail rail_electric rail_fast ship" speed="6.21" length="11.76" width="3.50" shape="-389.94,421.69 -396.15,411.70"/>
    </edge>
    <edge id=":26_10" function="internal">
        <lane id=":26_10_0" index="0" disallow="pedestrian tram rail_urban rail rail_electric rail_fast ship" speed="36.11" length="18.63" width="3.50" shape="-389.95,421.70 -387.34,412.75 -384.74,403.81"/>
    </edge>
    <edge id=":26_11" function="internal">
        <lane id=":26_11_0" index="0" disallow="pedestrian tram rail_urban rail rail_electric rail_fast ship" speed="8.41" length="16.93" width="3.50" shape="-389.95,421.70 -389.20,419.61 -388.54,418.29 -387.70,417.09 -386.66,416.04 -385.42,415.25 -384.04,414.75 -382.58,414.57 -381.11,414.64 -378.95,415.10 -376.88,415.84"/>
    </edge>
    <edge id=":28_0" function="internal">
        <lane id=":28_0_0" index="0" disallow="pedestrian tram rail_urban rail rail_electric rail_fast ship" speed="36.11" length="16.48" width="3.50" shape="-306.48,435.50 -314.06,433.32 -322.23,430.66"/>
    </edge>
    <edge id=":28_1" function="internal">
        <lane id=":28_1_0" index="0" disallow="pedestrian tram rail_urban rail rail_electric rail_fast ship" speed="8.34" length="15.28" width="3.50" shape="-306.48,435.49 -306.89,435.37 -308.71,434.61 -309.95,433.84 -311.06,432.86 -311.99,431.65 -312.65,430.30 -313.03,428.87 -313.17,427.43 -313.04,425.42 -312.65,423.49"/>
    </edge>
    <edge id=":28_2" function="internal">
        <lane id=":28_2_0" index="0" disallow="pedestrian tram rail_urban rail rail_electric rail_fast ship" speed="5.93" length="9.51" width="3.49" shape="-309.27,424.39 -302.67,431.23"/>
    </edge>
    <edge id=":28_3" function="internal">
        <lane id=":28_3_0" index="0" disallow="pedestrian tram rail_urban rail rail_electric rail_fast ship" speed="8.47" length="16.81" width="3.50" shape="-309.27,424.39 -309.98,426.47 -310.62,427.78 -311.45,428.99 -312.47,430.03 -313.70,430.83 -315.06,431.36 -316.50,431.60 -317.97,431.61 -320.13,431.27 -322.23,430.66"/>
    </edge>
    <edge id=":28_4" function="internal">
        <lane id=":28_4_0" index="0" disallow="pedestrian tram rail_urban rail rail_electric rail_fast ship" speed="6.96" length="10.97" width="3.50" shape="-321.11,427.34 -319.54,427.81 -318.00,428.05 -317.07,428.05 -316.19,427.92 -315.40,427.63 -314.71,427.19 -314.11,426.59 -313.58,425.83 -313.16,424.98 -312.65,423.49"/>
    </edge>
    <edge id=":28_5" function="internal">
        <lane id=":28_5_0" index="0" disallow="pedestrian tram rail_urban rail rail_electric rail_fast ship" speed="36.11" length="16.28" width="3.50" shape="-321.08,427.35 -305.52,432.14"/>
    </edge>

    <edge id="1323" from="26" to="27" priority="3" type="highway.residential" spreadType="center" length="20.86" shape="-384.73,415.35 -393.28,411.05">
        <lane id="1323_0" index="0" disallow="pedestrian tram rail_urban rail rail_electric rail_fast ship" speed="36.11" length="20.86" width="3.50" customShape="1" shape="-396.15,411.70 -389.51,419.84 -389.31,418.43 -389.27,417.00 -389.43,415.58 -389.69,414.67 -390.08,413.80 -390.60,413.01 -391.26,412.32 -392.41,411.48 -393.17,411.10"/>
    </edge>
    <edge id="1325" from="26" to="27" priority="3" type="highway.residential" spreadType="center" length="0.35">
        <lane id="1325_0" index="0" disallow="pedestrian tram rail_urban rail rail_electric rail_fast ship" speed="36.11" length="0.35" width="3.50" customShape="1" shape="-393.38,411.01 -393.71,410.90"/>
    </edge>
    <edge id="138" from="26" to="12" priority="3" type="highway.residential" spreadType="center" length="53.47" shape="-382.55,414.14 -401.03,474.12">
        <lane id="138_0" index="0" disallow="pedestrian tram rail_urban rail rail_electric rail_fast ship" speed="36.11" length="53.47" width="3.50" customShape="1" shape="-386.58,422.66 -395.98,455.57 -399.18,465.85 -400.43,470.67 -401.03,474.12"/>
    </edge>
    <edge id="139" from="14" to="26" priority="3" type="highway.residential" spreadType="center" length="53.97" shape="-404.49,473.64 -385.90,413.11">
        <lane id="139_0" index="0" disallow="pedestrian tram rail_urban rail rail_electric rail_fast ship" speed="36.11" length="53.97" width="3.50" customShape="1" shape="-404.49,473.64 -403.85,469.93 -402.54,464.87 -399.34,454.59 -389.94,421.69"/>
    </edge>
    <edge id="141" from="17" to="26" priority="3" type="highway.residential" spreadType="center" length="46.82" shape="-368.29,359.86 -382.56,414.17">
        <lane id="141_0" index="0" disallow="pedestrian tram rail_urban rail rail_electric rail_fast ship" speed="36.11" length="46.82" width="3.50" customShape="1" shape="-368.29,359.86 -376.97,389.90 -381.38,404.81"/>
    </edge>
    <edge id="142" from="26" to="16" priority="3" type="highway.residential" spreadType="center" length="46.82" shape="-385.94,413.28 -371.64,358.86">
        <lane id="142_0" index="0" disallow="pedestrian tram rail_urban rail rail_electric rail_fast ship" speed="36.11" length="46.82" width="3.50" customShape="1" shape="-384.74,403.81 -380.33,388.91 -371.64,358.86"/>
    </edge>
    <edge id="2047" from="28" to="29" priority="3" type="highway.residential" spreadType="center" length="17.45" shape="-313.60,426.69 -305.28,432.20">
        <lane id="2047_0" index="0" disallow="pedestrian tram rail_urban rail rail_electric rail_fast ship" speed="36.11" length="17.45" width="3.49" customShape="1" shape="-302.67,431.23 -309.54,425.73 -309.64,427.10 -309.56,428.00 -309.34,428.89 -308.95,429.71 -308.42,430.45 -307.74,431.05 -306.97,431.54 -305.71,432.07 -305.28,432.20"/>
    </edge>
    <edge id="2077" from="26" to="27" priority="3" type="highway.residential" spreadType="center" length="0.34">
        <lane id="2077_0" index="0" disallow="pedestrian tram rail_urban rail rail_electric rail_fast ship" speed="36.11" length="0.34" width="3.49" customShape="1" shape="-393.38,411.00 -393.69,410.85"/>
    </edge>
    <edge id="2078" from="28" to="29" priority="3" type="highway.residential" spreadType="center" length="0.25">
        <lane id="2078_0" index="0" disallow="pedestrian tram rail_urban rail rail_electric rail_fast ship" speed="36.11" length="0.25" width="3.50" customShape="1" shape="-305.52,432.14 -305.28,432.20"/>
    </edge>
    <edge id="795" from="18" to="28" priority="3" type="highway.residential" spreadType="center" length="9.74" shape="-306.77,414.98 -312.78,429.15">
        <lane id="795_0" index="0" disallow="pedestrian tram rail_urban rail rail_electric rail_fast ship" speed="36.11" length="9.74" width="3.49" customShape="1" shape="-306.77,414.98 -308.02,419.69 -309.27,424.39"/>
    </edge>
    <edge id="796" from="28" to="20" priority="3" type="highway.residential" spreadType="center" length="9.74" shape="-315.98,427.80 -310.15,414.08">
        <lane id="796_0" index="0" disallow="pedestrian tram rail_urban rail rail_electric rail_fast ship" speed="36.11" length="9.74" width="3.50" customShape="1" shape="-312.65,423.49 -311.40,418.79 -310.15,414.08"/>
    </edge>
    <edge id="822" from="19" to="26" priority="3" type="highway.residential" spreadType="center" length="5.21" shape="-396.95,405.66 -383.31,412.20">
        <lane id="822_0" index="0" disallow="pedestrian tram rail_urban rail rail_electric rail_fast ship" speed="36.11" length="5.21" width="3.50" customShape="1" shape="-396.95,405.66 -392.16,407.72"/>
    </edge>
    <edge id="831" from="28" to="26" priority="3" type="highway.residential" spreadType="center" length="57.84" shape="-314.61,430.01 -384.60,415.39">
        <lane id="831_0" index="0" disallow="pedestrian tram rail_urban rail rail_electric rail_fast ship" speed="36.11" length="57.84" width="3.50" customShape="1" shape="-322.23,430.66 -324.12,430.00 -328.32,428.74 -331.60,428.05 -334.43,427.74 -335.21,427.79 -336.99,428.21 -338.80,428.52 -340.63,428.48 -346.78,427.95 -352.87,427.02 -358.90,425.72 -364.83,424.06 -371.13,421.91 -378.24,419.07"/>
    </edge>
    <edge id="832" from="26" to="28" priority="3" type="highway.residential" spreadType="center" length="57.61" shape="-383.88,411.96 -313.90,426.59">
        <lane id="832_0" index="0" disallow="pedestrian tram rail_urban rail rail_electric rail_fast ship" speed="36.11" length="57.61" width="3.50" customShape="1" shape="-376.88,415.84 -369.92,418.63 -363.80,420.72 -358.06,422.32 -352.25,423.58 -346.37,424.47 -340.43,424.99 -339.11,425.05 -337.77,424.80 -335.61,424.32 -334.26,424.26 -331.04,424.60 -327.45,425.35 -323.02,426.68 -321.08,427.35"/>
    </edge>
    <edge id="834" from="8" to="28" priority="3" type="highway.residential" spreadType="center" length="5.80" shape="-300.90,437.05 -315.26,429.76">
        <lane id="834_0" index="0" disallow="pedestrian tram rail_urban rail rail_electric rail_fast ship" speed="36.11" length="5.80" width="3.50" customShape="1" shape="-300.90,437.05 -305.72,435.71 -305.83,435.68 -305.93,435.65 -306.04,435.62 -306.49,435.50"/>
    </edge>

    <junction id="12" type="dead_end" x="-401.03" y="474.12" incLanes="138_0" intLanes="" shape="-399.30,474.42 -402.75,473.82" rightOfWay="edgePriority"/>
    <junction id="14" type="dead_end" x="-404.49" y="473.64" incLanes="" intLanes="" shape="-402.77,473.94 -406.22,473.34" rightOfWay="edgePriority"/>
    <junction id="16" type="dead_end" x="-371.64" y="358.86" incLanes="142_0" intLanes="" shape="-373.32,358.38 -369.96,359.35" rightOfWay="edgePriority"/>
    <junction id="17" type="dead_end" x="-368.29" y="359.86" incLanes="" intLanes="" shape="-369.97,359.38 -366.61,360.35" rightOfWay="edgePriority"/>
    <junction id="18" type="dead_end" x="-306.77" y="414.98" incLanes="" intLanes="" shape="-308.46,414.53 -305.08,415.43" rightOfWay="edgePriority"/>
    <junction id="19" type="dead_end" x="-396.95" y="405.66" incLanes="" intLanes="" shape="-397.65,407.26 -396.26,404.05" rightOfWay="edgePriority"/>
    <junction id="20" type="dead_end" x="-310.15" y="414.08" incLanes="796_0" intLanes="" shape="-311.84,413.63 -308.46,414.53" rightOfWay="edgePriority"/>
    <junction id="26" type="priority" x="-384.24" y="413.67" incLanes="831_0 141_0 822_0 139_0" intLanes=":26_0_0 :26_1_0 :26_2_0 :26_3_0 :26_4_0 :26_5_0 :26_6_0 :26_7_0 :26_8_0 :26_9_0 :26_10_0 :26_11_0" shape="-378.83,420.72 -376.23,414.22 -379.05,412.26 -379.83,410.90 -380.21,409.28 -380.16,407.42 -379.71,405.30 -386.42,403.31 -387.55,405.59 -388.31,406.23 -389.21,406.54 -390.24,406.51 -391.40,406.15 -394.45,412.42 -397.50,412.80 -394.79,410.59 -391.63,421.22 -384.90,423.14 -383.67,420.94 -382.76,420.36 -381.65,420.13 -380.34,420.25">
        <request index="0" response="000000010000" foes="000100010000" cont="0"/>
        <request index="1" response="110000010000" foes="110100010000" cont="0"/>
        <request index="2" response="110011110000" foes="110111110000" cont="0"/>
        <request index="3" response="000000000000" foes="100010000000" cont="0"/>
        <request index="4" response="000000000000" foes="100110000111" cont="0"/>
        <request index="5" response="010000000000" foes="010110000100" cont="0"/>
        <request index="6" response="010000000000" foes="010000000100" cont="0"/>
        <request index="7" response="110000111000" foes="110000111100" cont="0"/>
        <request index="8" response="110000110111" foes="110000110111" cont="0"/>
        <request index="9" response="000000000000" foes="000000000000" cont="0"/>
        <request index="10" response="000000000000" foes="000111100110" cont="0"/>
        <request index="11" response="000000011000" foes="000110011110" cont="0"/>
    </junction>
    <junction id="27" type="dead_end" x="-393.28" y="411.05" incLanes="1323_0 1325_0 2077_0" intLanes="" shape="-394.06,412.61 -392.50,409.49 -393.84,412.70 -392.72,409.39 -394.05,412.62 -392.52,409.48"/>
    <junction id="28" type="priority" x="-314.30" y="428.29" incLanes="834_0 795_0 832_0" intLanes=":28_0_0 :28_1_0 :28_2_0 :28_3_0 :28_4_0 :28_5_0" shape="-306.97,437.18 -305.03,430.46 -301.58,429.86 -303.76,432.59 -307.58,424.83 -314.34,423.04 -315.54,425.29 -316.47,425.90 -317.60,426.18 -318.95,426.11 -320.51,425.70 -322.80,432.31">
        <request index="0" response="000000" foes="001000" cont="0"/>
        <request index="1" response="110000" foes="111000" cont="0"/>
        <request index="2" response="000000" foes="000000" cont="0"/>
        <request index="3" response="100011" foes="100011" cont="0"/>
        <request index="4" response="000000" foes="000010" cont="0"/>
        <request index="5" response="000000" foes="001010" cont="0"/>
    </junction>
    <junction id="29" type="dead_end" x="-305.28" y="432.20" incLanes="2047_0 2078_0" intLanes="" shape="-304.76,430.54 -305.80,433.87 -304.79,430.52 -305.76,433.89"/>
    <junction id="8" type="dead_end" x="-300.90" y="437.05" incLanes="" intLanes="" shape="-300.43,435.36 -301.37,438.73" rightOfWay="edgePriority"/>

    <connection from="139" to="1323" fromLane="0" toLane="0" contPos="-4.00" via=":26_9_0" dir="r" state="M"/>
    <connection from="139" to="142" fromLane="0" toLane="0" contPos="-4.00" shape="-389.94,421.69 -387.34,412.75 -384.74,403.81" via=":26_10_0" dir="s" state="M"/>
    <connection from="139" to="832" fromLane="0" toLane="0" contPos="-4.00" shape="-389.94,421.69 -389.20,419.61 -388.54,418.29 -387.70,417.09 -386.66,416.04 -385.42,415.25 -384.04,414.75 -382.58,414.57 -381.11,414.64 -378.95,415.10 -376.88,415.84" via=":26_11_0" dir="l" state="m"/>
    <connection from="141" to="832" fromLane="0" toLane="0" contPos="-4.00" shape="-381.38,404.81 -381.82,406.66 -381.99,408.08 -381.96,409.51 -381.70,410.91 -381.16,412.24 -380.65,413.04 -379.69,414.10 -378.56,414.96 -377.30,415.65 -376.88,415.84" via=":26_3_0" dir="r" state="M"/>
    <connection from="141" to="138" fromLane="0" toLane="0" contPos="-4.00" shape="-381.38,404.81 -383.98,413.73 -386.58,422.66" via=":26_4_0" dir="s" state="M"/>
    <connection from="141" to="1325" fromLane="0" toLane="0" contPos="-4.00" via=":26_5_0" dir="l" state="m"/>
    <connection from="795" to="2047" fromLane="0" toLane="0" contPos="-4.00" via=":28_2_0" dir="r" state="M"/>
    <connection from="795" to="831" fromLane="0" toLane="0" contPos="-4.00" shape="-309.27,424.39 -309.98,426.47 -310.62,427.78 -311.45,428.99 -312.47,430.03 -313.70,430.83 -315.06,431.36 -316.50,431.60 -317.97,431.61 -320.13,431.27 -322.23,430.66" via=":28_3_0" dir="l" state="m"/>
    <connection from="822" to="142" fromLane="0" toLane="0" contPos="-4.00" shape="-391.90,407.84 -390.43,408.33 -389.53,408.49 -388.66,408.49 -387.89,408.33 -387.18,407.94 -386.54,407.39 -386.00,406.67 -385.27,405.31 -384.74,403.81" via=":26_6_0" dir="r" state="m"/>
    <connection from="822" to="832" fromLane="0" toLane="0" contPos="-4.00" shape="-391.90,407.84 -388.29,409.59 -380.05,414.32 -376.88,415.84" via=":26_7_0" dir="s" state="m"/>
    <connection from="822" to="138" fromLane="0" toLane="0" contPos="-4.00" shape="-391.90,407.84 -390.66,408.45 -389.01,409.60 -387.99,410.61 -387.14,411.78 -386.50,413.05 -386.07,414.41 -385.77,416.39 -385.78,418.35 -386.02,420.25 -386.58,422.66" via=":26_8_0" dir="l" state="m"/>
    <connection from="831" to="138" fromLane="0" toLane="0" contPos="-4.00" shape="-378.24,419.07 -379.74,418.52 -381.25,418.19 -382.16,418.15 -383.02,418.24 -383.80,418.52 -384.48,418.94 -385.08,419.54 -385.61,420.30 -386.05,421.16 -386.58,422.66" via=":26_0_0" dir="r" state="m"/>
    <connection from="831" to="2077" fromLane="0" toLane="0" contPos="-4.00" via=":26_1_0" dir="s" state="m"/>
    <connection from="831" to="142" fromLane="0" toLane="0" contPos="-4.00" shape="-378.24,419.07 -378.85,418.79 -380.52,417.87 -382.10,416.68 -383.48,415.21 -384.27,413.99 -385.06,412.11 -385.46,410.12 -385.52,408.15 -385.30,406.23 -384.74,403.81" via=":26_2_0" dir="l" state="m"/>
    <connection from="832" to="796" fromLane="0" toLane="0" contPos="-4.00" shape="-321.11,427.34 -319.54,427.81 -318.00,428.05 -317.07,428.05 -316.19,427.92 -315.40,427.63 -314.71,427.19 -314.11,426.59 -313.58,425.83 -313.16,424.98 -312.65,423.49" via=":28_4_0" dir="r" state="M"/>
    <connection from="832" to="2078" fromLane="0" toLane="0" contPos="-4.00" via=":28_5_0" dir="s" state="M"/>
    <connection from="834" to="831" fromLane="0" toLane="0" contPos="-4.00" shape="-306.23,435.57 -314.06,433.32 -322.23,430.66" via=":28_0_0" dir="s" state="M"/>
    <connection from="834" to="796" fromLane="0" toLane="0" contPos="-4.00" shape="-306.23,435.57 -306.89,435.37 -308.71,434.61 -309.95,433.84 -311.06,432.86 -311.99,431.65 -312.65,430.30 -313.03,428.87 -313.17,427.43 -313.04,425.42 -312.65,423.49" via=":28_1_0" dir="L" state="m"/>

    <connection from=":26_0" to="138" fromLane="0" toLane="0" dir="r" state="M"/>
    <connection from=":26_1" to="2077" fromLane="0" toLane="0" dir="s" state="M"/>
    <connection from=":26_2" to="142" fromLane="0" toLane="0" dir="l" state="M"/>
    <connection from=":26_3" to="832" fromLane="0" toLane="0" dir="r" state="M"/>
    <connection from=":26_4" to="138" fromLane="0" toLane="0" dir="s" state="M"/>
    <connection from=":26_5" to="1325" fromLane="0" toLane="0" dir="l" state="M"/>
    <connection from=":26_6" to="142" fromLane="0" toLane="0" dir="r" state="M"/>
    <connection from=":26_7" to="832" fromLane="0" toLane="0" dir="s" state="M"/>
    <connection from=":26_8" to="138" fromLane="0" toLane="0" dir="l" state="M"/>
    <connection from=":26_9" to="1323" fromLane="0" toLane="0" dir="r" state="M"/>
    <connection from=":26_10" to="142" fromLane="0" toLane="0" dir="s" state="M"/>
    <connection from=":26_11" to="832" fromLane="0" toLane="0" dir="l" state="M"/>
    <connection from=":28_0" to="831" fromLane="0" toLane="0" dir="s" state="M"/>
    <connection from=":28_1" to="796" fromLane="0" toLane="0" dir="L" state="M"/>
    <connection from=":28_2" to="2047" fromLane="0" toLane="0" dir="r" state="M"/>
    <connection from=":28_3" to="831" fromLane="0" toLane="0" dir="l" state="M"/>
    <connection from=":28_4" to="796" fromLane="0" toLane="0" dir="r" state="M"/>
    <connection from=":28_5" to="2078" fromLane="0" toLane="0" dir="s" state="M"/>

</net>