<routes>
	<vehicle depart="0.1" departLane="0" departPos="44.73726996601737" departSpeed="6.9178547" id="38" type="bicycle">
		<route edges="138"/>
	</vehicle>
	<vehicle depart="0.1" departLane="0" departPos="34.22164712312588" departSpeed="6.8849169" id="39" type="bicycle">
		<route edges="138"/>
	</vehicle>
	<vehicle depart="0.1" departLane="0" departPos="18.398498259808" departSpeed="5.5862597" id="328" type="bicycle">
		<route edges="139 142"/>
	</vehicle>
	<vehicle depart="0.1" departLane="0" departPos="57.68683808404034" departSpeed="0.0" id="32" type="passenger">
		<route edges="831 142"/>
	</vehicle>
	<vehicle depart="0.1" departLane="0" departPos="50.5870809212943" departSpeed="0.0" id="33" type="passenger">
		<route edges="831 142"/>
	</vehicle>
	<vehicle depart="0.1" departLane="0" departPos="43.88320122556296" departSpeed="6.4149752e-05" id="34" type="passenger">
		<route edges="831 142"/>
	</vehicle>
	<vehicle depart="0.1" departLane="0" departPos="5.199046304093244" departSpeed="0.0" id="35" type="passenger">
		<route edges="822 138"/>
	</vehicle>
	<vehicle depart="0.1" departLane="0" departPos="37.17821179020175" departSpeed="0.0013467914" id="310" type="passenger">
		<route edges="831 142"/>
	</vehicle>
	<vehicle depart="0.1" departLane="0" departPos="30.378542227920594" departSpeed="0.011661519" id="311" type="passenger">
		<route edges="831 142"/>
	</vehicle>
	<vehicle depart="0.1" departLane="0" departPos="54.0888787891204" departSpeed="0.0" id="312" type="passenger">
		<route edges="139 832"/>
	</vehicle>
	<vehicle depart="0.1" departLane="0" departPos="38.240452459220684" departSpeed="12.965416" id="313" type="passenger">
		<route edges="832 2078"/>
	</vehicle>
	<vehicle depart="0.1" departLane="0" departPos="47.04448926732773" departSpeed="0.00072167188" id="315" type="passenger">
		<route edges="139 832"/>
	</vehicle>
	<vehicle depart="0.1" departLane="0" departPos="23.05593344308889" departSpeed="0.13976664" id="316" type="passenger">
		<route edges="831 142"/>
	</vehicle>
	<vehicle depart="0.1" departLane="0" departPos="17.045783521605063" departSpeed="12.172307" id="317" type="passenger">
		<route edges="138"/>
	</vehicle>
	<vehicle depart="0.1" departLane="0" departPos="18.836989061974137" departSpeed="11.070251" id="318" type="passenger">
		<route edges=":26_4 138"/>
	</vehicle>
	<vehicle depart="0.1" departLane="0" departPos="15.032335722458253" departSpeed="0.68406465" id="319" type="passenger">
		<route edges="831 142"/>
	</vehicle>
	<vehicle depart="0.1" departLane="0" departPos="10.03672819302853" departSpeed="0.0" id="320" type="passenger">
		<route edges="795 831"/>
	</vehicle>
	<vehicle depart="0.1" departLane="0" departPos="45.44977668669837" departSpeed="2.4542663" id="321" type="passenger">
		<route edges="141 138"/>
	</vehicle>
	<vehicle depart="0.1" departLane="0" departPos="39.798950310000706" departSpeed="0.17489261" id="322" type="passenger">
		<route edges="139 832"/>
	</vehicle>
	<vehicle depart="0.1" departLane="0" departPos="6.394895025546291" departSpeed="1.6191792" id="323" type="passenger">
		<route edges="831 142"/>
	</vehicle>
	<vehicle depart="0.1" departLane="0" departPos="25.194613116806774" departSpeed="1.9992301" id="326" type="passenger">
		<route edges="139 832"/>
	</vehicle>
	<vehicle depart="0.1" departLane="0" departPos="5.8983961640053115" departSpeed="0.0" id="327" type="passenger">
		<route edges="834 831 142"/>
	</vehicle>
	<vehicle depart="0.1" departLane="0" departPos="32.45454641774821" departSpeed="4.7021282" id="324" type="motorcycle">
		<route edges="141 138"/>
	</vehicle>
	<vehicle depart="0.1" departLane="0" departPos="31.759010243414387" departSpeed="0.8764884" id="325" type="motorcycle">
		<route edges="139 832"/>
	</vehicle>
	<vehicle depart="0.1" departLane="0" departPos="5.386644070131591" departSpeed="8.3128002" id="330" type="motorcycle">
		<route edges="139 832"/>
	</vehicle>
</routes>
