<routes>
	<vehicle depart="0.1" departLane="0" departPos="5.1857746368984605" departSpeed="7.7329228" id="37" type="bicycle">
		<route edges=":81_3 294"/>
	</vehicle>
	<vehicle depart="0.1" departLane="0" departPos="8.411449723990913" departSpeed="0.58174322" id="39" type="bicycle">
		<route edges=":84_4 297"/>
	</vehicle>
	<vehicle depart="0.1" departLane="0" departPos="10.685702594279121" departSpeed="0.62011699" id="38" type="passenger">
		<route edges="301 731"/>
	</vehicle>
	<vehicle depart="0.1" departLane="0" departPos="8.7539488179569" departSpeed="0.22995245" id="315" type="passenger">
		<route edges="642 294"/>
	</vehicle>
	<vehicle depart="0.1" departLane="0" departPos="6.5444873684902385" departSpeed="3.0890693" id="317" type="passenger">
		<route edges="300 297"/>
	</vehicle>
	<vehicle depart="0.1" departLane="0" departPos="18.46179976956399" departSpeed="10.930235" id="320" type="passenger">
		<route edges=":84_2 301 731"/>
	</vehicle>
	<vehicle depart="0.1" departLane="0" departPos="2.5" departSpeed="3.9095493" id="346" type="passenger">
		<route edges=":84_0 680"/>
	</vehicle>
	<vehicle depart="0.1" departLane="0" departPos="20.749503237662026" departSpeed="5.5579844" id="351" type="passenger">
		<route edges=":87_9 300 297"/>
	</vehicle>
	<vehicle depart="0.1" departLane="0" departPos="4.107568481372867" departSpeed="0.44577035" id="350" type="motorcycle">
		<route edges=":84_4 297"/>
	</vehicle>
	<vehicle depart="0.1" departLane="0" departPos="21.981358992662482" departSpeed="1.0962159" id="30" type="truck">
		<route edges="301 731"/>
	</vehicle>
</routes>
