<routes>
	<vehicle depart="0.1" departLane="0" departPos="55.06375877854176" departSpeed="6.8108849" id="362" type="bus">
		<route edges="7392 7395"/>
	</vehicle>
	<vehicle depart="0.1" departLane="0" departPos="21.710586618596626" departSpeed="0.74368529" id="33" type="passenger">
		<route edges=":34_11 7395"/>
	</vehicle>
	<vehicle depart="0.1" departLane="0" departPos="5.851475288300474" departSpeed="2.4304911" id="39" type="passenger">
		<route edges="6909 7395"/>
	</vehicle>
	<vehicle depart="0.1" departLane="0" departPos="19.49765874563946" departSpeed="1.1703132" id="312" type="passenger">
		<route edges="6909 6941"/>
	</vehicle>
	<vehicle depart="0.1" departLane="0" departPos="63.48303764492155" departSpeed="1.3609773" id="315" type="passenger">
		<route edges="7394 6941"/>
	</vehicle>
	<vehicle depart="0.1" departLane="0" departPos="46.904527832404305" departSpeed="1.2176315" id="332" type="passenger">
		<route edges="7394 6908"/>
	</vehicle>
	<vehicle depart="0.1" departLane="0" departPos="39.36456956878423" departSpeed="0.39084973" id="335" type="passenger">
		<route edges="7394 6908"/>
	</vehicle>
	<vehicle depart="0.1" departLane="0" departPos="29.142709285962244" departSpeed="0.36644467" id="337" type="passenger">
		<route edges="7394 6908"/>
	</vehicle>
	<vehicle depart="0.1" departLane="0" departPos="52.414734589664285" departSpeed="2.5297225" id="327" type="motorcycle">
		<route edges="7394 6908"/>
	</vehicle>
	<vehicle depart="0.1" departLane="0" departPos="71.52904733033186" departSpeed="10.116646" id="361" type="truck">
		<route edges="7392 7395"/>
	</vehicle>
</routes>
