<!-- generated on 2020-12-18 15:40:47.598588 by ipykernel_launcher.py v1_2_0+5214-53edc58fcd
-->
<nodes>
	<node id="1" type="from" x="-39.95034166666667" y="32.70069166666667"/>
	<node id="2" type="to" x="77.404525" y="-69.99630833333333"/>
	<node id="3" type="to" x="101.27435" y="-88.49332000000001"/>
	<node id="4" type="to" x="93.8509" y="-97.03305"/>
</nodes>
