<routes>
	<vehicle depart="0.1" departLane="4" departPos="85.68100717222777" departSpeed="12.3768" id="397" type="passenger">
		<route edges="23 24"/>
	</vehicle>
	<vehicle depart="0.1" departLane="3" departPos="97.08851353668152" departSpeed="15.9072" id="403" type="passenger">
		<route edges="23 24"/>
	</vehicle>
	<vehicle depart="0.1" departLane="5" departPos="83.30312367353096" departSpeed="15.2877" id="404" type="passenger">
		<route edges="23 24"/>
	</vehicle>
	<vehicle depart="0.1" departLane="4" departPos="95.54467505696725" departSpeed="11.9324" id="405" type="passenger">
		<route edges="23 24"/>
	</vehicle>
	<vehicle depart="0.1" departLane="1" departPos="118.2824459519639" departSpeed="16.76" id="407" type="passenger">
		<route edges="23 24"/>
	</vehicle>
	<vehicle depart="0.1" departLane="2" departPos="75.41042763213453" departSpeed="13.2282" id="410" type="passenger">
		<route edges="23 24"/>
	</vehicle>
	<vehicle depart="0.1" departLane="4" departPos="61.9272697422676" departSpeed="11.9782" id="411" type="passenger">
		<route edges="23 24"/>
	</vehicle>
	<vehicle depart="0.1" departLane="2" departPos="62.85091317096686" departSpeed="14.604" id="415" type="passenger">
		<route edges="23 24"/>
	</vehicle>
	<vehicle depart="0.1" departLane="1" departPos="77.70207724332057" departSpeed="14.7715" id="416" type="passenger">
		<route edges="23 24"/>
	</vehicle>
	<vehicle depart="0.1" departLane="5" departPos="75.1786649166676" departSpeed="15.2862" id="417" type="passenger">
		<route edges="23 24"/>
	</vehicle>
	<vehicle depart="0.1" departLane="4" departPos="69.54199530686469" departSpeed="13.0091" id="418" type="passenger">
		<route edges="23 24"/>
	</vehicle>
	<vehicle depart="0.1" departLane="3" departPos="72.27022923082815" departSpeed="16.8989" id="419" type="passenger">
		<route edges="23 24"/>
	</vehicle>
	<vehicle depart="0.1" departLane="5" departPos="55.94827112491356" departSpeed="12.4762" id="422" type="passenger">
		<route edges="23 24"/>
	</vehicle>
	<vehicle depart="0.1" departLane="2" departPos="45.02702012832714" departSpeed="17.2433" id="424" type="passenger">
		<route edges="23 24"/>
	</vehicle>
</routes>
