<?xml version="1.0" encoding="UTF-8"?>

<!-- generated on Fri Dec 18 15:40:47 2020 by Eclipse SUMO netconvert Version 1.8.0
<configuration xmlns:xsi="http://www.w3.org/2001/XMLSchema-instance" xsi:noNamespaceSchemaLocation="http://sumo.dlr.de/xsd/netconvertConfiguration.xsd">

    <input>
        <node-files value="./converted_scenarios/hand-crafted/USA_US101-9_2_I-1-1/nodes.net.xml"/>
        <edge-files value="./converted_scenarios/hand-crafted/USA_US101-9_2_I-1-1/edges.net.xml"/>
        <connection-files value="./converted_scenarios/hand-crafted/USA_US101-9_2_I-1-1/_connections.net.xml"/>
        <tllogic-files value="./converted_scenarios/hand-crafted/USA_US101-9_2_I-1-1/_tll.net.xml"/>
    </input>

    <output>
        <output-file value="./converted_scenarios/hand-crafted/USA_US101-9_2_I-1-1/USA_US101-9_2_I-1-1.net.xml"/>
    </output>

    <processing>
        <plain.extend-edge-shape value="true"/>
        <geometry.remove.keep-edges.explicit value="true"/>
        <geometry.avoid-overlap value="true"/>
        <offset.disable-normalization value="true"/>
    </processing>

    <junctions>
        <no-turnarounds value="true"/>
        <junctions.internal-link-detail value="20"/>
    </junctions>

    <report>
        <aggregate-warnings value="5"/>
    </report>

    <random_number>
        <seed value="1234"/>
    </random_number>

</configuration>
-->

<net version="1.6" junctionCornerDetail="5" junctionLinkDetail="20" limitTurnSpeed="5.50" xmlns:xsi="http://www.w3.org/2001/XMLSchema-instance" xsi:noNamespaceSchemaLocation="http://sumo.dlr.de/xsd/net_file.xsd">

    <location netOffset="0.00,0.00" convBoundary="-39.95,-97.03,101.27,32.70" origBoundary="-45.63,-97.03,105.73,39.17" projParameter="!"/>

    <edge id=":2_0" function="internal">
        <lane id=":2_0_0" index="0" disallow="bus truck rail_fast" speed="36.11" length="13.53" width="3.96" shape="60.81,-67.04 70.95,-76.00"/>
    </edge>
    <edge id=":2_1" function="internal">
        <lane id=":2_1_0" index="0" disallow="bus truck rail_fast" speed="36.11" length="13.54" width="3.51" shape="63.28,-64.27 73.46,-73.20"/>
        <lane id=":2_1_1" index="1" disallow="bus truck rail_fast" speed="36.11" length="13.54" width="3.29" shape="65.53,-61.74 75.72,-70.66"/>
        <lane id=":2_1_2" index="2" disallow="bus truck rail_fast" speed="36.11" length="13.54" width="3.09" shape="67.76,-59.24 77.94,-68.16"/>
        <lane id=":2_1_3" index="3" disallow="bus truck rail_fast" speed="36.11" length="13.54" width="3.36" shape="70.00,-56.73 80.18,-65.63"/>
        <lane id=":2_1_4" index="4" disallow="bus truck rail_fast" speed="36.11" length="13.54" width="3.48" shape="72.25,-54.20 82.46,-63.08"/>
    </edge>

    <edge id="22" from="2" to="4" priority="1" spreadType="center" length="30.28">
        <lane id="22_0" index="0" disallow="rail_fast" speed="36.11" length="30.28" width="3.96" customShape="1" shape="70.95,-76.00 76.96,-81.42 89.93,-93.29 93.85,-97.03"/>
    </edge>
    <edge id="23" from="1" to="2" priority="1" spreadType="center" length="155.73">
        <lane id="23_0" index="0" disallow="bus truck rail_fast" speed="36.11" length="155.73" width="3.68" customShape="1" shape="-45.63,26.00 -44.85,25.33 -44.13,24.68 -41.49,22.38 -40.77,21.73 -38.06,19.36 -37.42,18.78 -37.34,18.71 -34.51,16.33 -33.79,15.69 -31.17,13.33 -30.44,12.68 -27.77,10.37 -27.05,9.72 -24.26,7.28 -23.53,6.63 -21.02,4.47 -20.30,3.82 -17.52,1.40 -16.80,0.75 -14.10,-1.51 -13.38,-2.16 -10.64,-4.61 -9.92,-5.26 -9.26,-5.83 -7.18,-7.63 -6.46,-8.27 -3.81,-10.56 -3.08,-11.21 -0.39,-13.53 0.34,-14.17 4.84,-18.08 5.56,-18.72 8.44,-21.18 9.16,-21.83 12.04,-24.31 12.76,-24.95 15.59,-27.43 16.31,-28.07 18.98,-30.39 19.70,-31.03 22.29,-33.26 22.51,-33.45 23.22,-34.12 23.71,-34.57 26.02,-36.62 26.74,-37.27 29.61,-39.82 30.33,-40.47 33.17,-43.00 33.89,-43.65 36.64,-46.07 37.36,-46.72 39.25,-48.35 40.09,-49.08 41.81,-50.62 48.04,-55.92 50.63,-58.12 51.35,-58.76 54.18,-61.20 54.90,-61.84 55.55,-62.40 57.60,-64.19 58.32,-64.84 60.81,-67.04"/>
        <lane id="23_1" index="1" disallow="bus truck rail_fast" speed="36.11" length="155.73" width="3.45" customShape="1" shape="-43.25,28.81 -42.43,28.11 -41.79,27.54 -39.09,25.20 -38.42,24.61 -36.03,22.54 -35.61,22.18 -34.88,21.53 -32.95,19.90 -32.05,19.15 -31.39,18.55 -28.79,16.21 -28.05,15.55 -25.32,13.18 -25.17,13.05 -24.67,12.60 -22.11,10.36 -21.79,10.07 -21.07,9.42 -18.57,7.24 -17.88,6.62 -15.09,4.15 -14.37,3.50 -13.42,2.70 -11.70,1.25 -11.04,0.67 -10.58,0.26 -8.33,-1.74 -7.60,-2.38 -7.51,-2.46 -4.78,-4.81 -4.12,-5.38 -4.03,-5.46 -2.61,-6.68 -1.36,-7.75 -0.70,-8.34 -0.62,-8.41 0.39,-9.28 2.07,-10.74 2.79,-11.39 7.27,-15.32 7.99,-15.97 8.07,-16.04 10.85,-18.41 10.96,-18.51 11.41,-18.90 11.53,-18.99 14.42,-21.42 14.75,-21.70 14.84,-21.78 15.15,-22.05 17.88,-24.45 18.07,-24.61 18.79,-25.26 21.45,-27.59 22.17,-28.24 23.30,-29.23 25.02,-30.71 25.68,-31.30 26.26,-31.81 28.53,-33.81 29.22,-34.43 32.12,-37.01 32.81,-37.63 35.32,-39.86 35.65,-40.15 36.33,-40.75 38.32,-42.48 39.16,-43.21 39.81,-43.79 39.91,-43.87 42.70,-46.24 43.35,-46.82 45.98,-49.14 46.12,-49.26 46.82,-49.88 46.92,-49.96 49.09,-51.81 49.79,-52.41 50.47,-53.02 53.08,-55.29 53.76,-55.90 56.60,-58.40 56.76,-58.54 57.25,-58.98 59.83,-61.21 60.07,-61.42 60.76,-62.04 63.28,-64.27"/>
        <lane id="23_2" index="2" disallow="bus truck rail_fast" speed="36.11" length="155.73" width="3.22" customShape="1" shape="-40.95,31.53 -40.62,31.25 -37.66,28.60 -33.70,25.13 -30.72,22.51 -29.60,21.52 -26.62,18.92 -22.81,15.59 -19.81,12.99 -18.71,12.01 -15.74,9.39 -11.21,5.39 -8.20,2.76 -7.60,2.25 -4.60,-0.34 -0.32,-4.02 2.67,-6.62 10.32,-13.33 13.34,-15.96 14.88,-17.26 17.20,-19.22 17.87,-19.80 20.19,-21.85 25.55,-26.65 28.52,-29.23 36.39,-36.24 37.54,-37.26 39.38,-38.86 40.50,-39.81 48.05,-46.22 48.38,-46.51 51.09,-48.86 51.41,-49.15 58.72,-55.73 59.05,-56.02 61.72,-58.34 62.07,-58.65 65.53,-61.74"/>
        <lane id="23_3" index="3" disallow="bus truck rail_fast" speed="36.11" length="155.73" width="3.05" customShape="1" shape="-38.76,34.11 -38.40,33.80 -35.55,31.23 -32.30,28.36 -29.37,25.69 -27.49,24.04 -24.46,21.42 -21.24,18.63 -18.24,16.02 -16.46,14.46 -13.49,11.84 -10.30,9.01 -7.31,6.41 -5.43,4.74 -2.46,2.12 0.94,-0.87 3.94,-3.47 12.00,-10.43 15.01,-13.03 16.98,-14.73 19.98,-17.31 23.28,-20.20 26.27,-22.84 27.78,-24.19 30.76,-26.80 34.28,-29.93 37.23,-32.52 38.61,-33.76 41.58,-36.38 45.07,-39.40 48.08,-41.97 50.23,-43.79 53.22,-46.39 56.76,-49.55 59.72,-52.19 60.82,-53.17 63.88,-55.83 67.61,-59.11 67.76,-59.24"/>
        <lane id="23_4" index="4" disallow="bus truck rail_fast" speed="36.11" length="155.73" width="3.28" customShape="1" shape="-36.65,36.59 -30.12,30.98 -30.00,30.88 -27.27,28.32 -19.30,21.41 -19.01,21.16 -16.31,18.81 -16.02,18.56 -8.24,11.69 -8.12,11.58 -5.21,9.05 -5.08,8.94 3.03,1.70 3.11,1.63 6.04,-0.92 14.17,-7.95 14.31,-8.07 17.16,-10.55 17.31,-10.68 25.43,-17.67 25.53,-17.76 28.41,-20.26 28.54,-20.37 36.50,-27.44 39.48,-30.03 47.18,-36.86 47.43,-37.07 50.20,-39.48 50.42,-39.68 58.80,-46.87 59.08,-47.11 61.81,-49.49 62.09,-49.73 69.73,-56.50 69.87,-56.62 70.00,-56.73"/>
        <lane id="23_5" index="5" disallow="bus truck rail_fast" speed="36.11" length="155.73" width="3.48" customShape="1" shape="-34.46,39.17 -27.88,33.59 -27.65,33.39 -27.53,33.28 -24.92,30.85 -24.58,30.54 -17.06,23.98 -16.67,23.65 -14.07,21.39 -13.69,21.05 -5.92,14.27 -5.53,13.93 -2.93,11.67 -2.59,11.37 5.35,4.29 5.72,3.97 8.32,1.71 8.71,1.37 16.57,-5.47 16.96,-5.81 19.56,-8.07 19.95,-8.41 27.65,-15.10 28.04,-15.43 30.64,-17.70 30.99,-18.00 38.76,-24.91 39.14,-25.24 41.74,-27.50 42.11,-27.82 49.70,-34.47 50.09,-34.81 52.69,-37.07 53.09,-37.42 61.11,-44.24 61.48,-44.56 64.11,-46.85 64.42,-47.12 71.98,-53.96 72.25,-54.20"/>
    </edge>
    <edge id="24" from="2" to="3" priority="1" spreadType="center" length="30.04">
        <lane id="24_0" index="0" disallow="rail_fast" speed="36.11" length="30.04" width="3.51" customShape="1" shape="73.46,-73.20 78.78,-77.84 81.77,-80.45 89.90,-87.58 92.89,-90.19 96.80,-93.64"/>
        <lane id="24_1" index="1" disallow="bus truck rail_fast" speed="36.11" length="30.04" width="3.29" customShape="1" shape="75.72,-70.66 81.02,-75.22 81.13,-75.32 84.05,-77.85 84.13,-77.92 92.13,-84.93 95.13,-87.54 99.08,-91.02"/>
        <lane id="24_2" index="2" disallow="bus truck rail_fast" speed="36.11" length="30.04" width="3.09" customShape="1" shape="77.94,-68.16 78.86,-68.96 81.87,-71.55 83.37,-72.86 86.33,-75.49 89.96,-78.73 92.94,-81.33 94.22,-82.42 97.23,-85.00 100.93,-88.17 101.29,-88.48"/>
        <lane id="24_3" index="3" disallow="bus truck rail_fast" speed="36.11" length="30.04" width="3.36" customShape="1" shape="80.18,-65.63 81.04,-66.39 81.16,-66.49 84.05,-69.00 91.88,-76.07 92.05,-76.22 94.92,-78.71 95.06,-78.83 103.17,-85.70 103.29,-85.80 103.49,-85.97"/>
        <lane id="24_4" index="4" disallow="bus truck rail_fast" speed="36.11" length="30.04" width="3.48" customShape="1" shape="82.46,-63.08 83.41,-63.90 83.80,-64.24 86.40,-66.50 86.73,-66.79 94.22,-73.51 94.59,-73.84 97.19,-76.10 97.60,-76.45 105.55,-83.23 105.76,-83.40"/>
    </edge>

    <junction id="1" type="dead_end" x="-39.95" y="32.70" incLanes="" intLanes="" shape="-33.34,40.50 -46.82,24.60"/>
    <junction id="2" type="priority" x="77.40" y="-70.00" incLanes="23_0 23_1 23_2 23_3 23_4 23_5" intLanes=":2_0_0 :2_1_0 :2_1_1 :2_1_2 :2_1_3 :2_1_4" shape="83.61,-61.77 72.30,-74.51 69.63,-77.47 59.58,-68.42 73.41,-52.90">
        <request index="0" response="000000" foes="000000" cont="0"/>
        <request index="1" response="000000" foes="000000" cont="0"/>
        <request index="2" response="000000" foes="000000" cont="0"/>
        <request index="3" response="000000" foes="000000" cont="0"/>
        <request index="4" response="000000" foes="000000" cont="0"/>
        <request index="5" response="000000" foes="000000" cont="0"/>
    </junction>
    <junction id="3" type="dead_end" x="101.27" y="-88.49" incLanes="24_0 24_1 24_2 24_3 24_4" intLanes="" shape="95.61,-94.92 106.91,-82.09"/>
    <junction id="4" type="dead_end" x="93.85" y="-97.03" incLanes="22_0" intLanes="" shape="92.48,-98.47 95.22,-95.60"/>

    <connection from="23" to="22" fromLane="0" toLane="0" contPos="-4.00" via=":2_0_0" dir="R" state="M"/>
    <connection from="23" to="24" fromLane="1" toLane="0" contPos="-4.00" via=":2_1_0" dir="s" state="M"/>
    <connection from="23" to="24" fromLane="2" toLane="1" contPos="-4.00" via=":2_1_1" dir="s" state="M"/>
    <connection from="23" to="24" fromLane="3" toLane="2" contPos="-4.00" via=":2_1_2" dir="s" state="M"/>
    <connection from="23" to="24" fromLane="4" toLane="3" contPos="-4.00" via=":2_1_3" dir="s" state="M"/>
    <connection from="23" to="24" fromLane="5" toLane="4" contPos="-4.00" via=":2_1_4" dir="s" state="M"/>

    <connection from=":2_0" to="22" fromLane="0" toLane="0" dir="R" state="M"/>
    <connection from=":2_1" to="24" fromLane="0" toLane="0" dir="s" state="M"/>
    <connection from=":2_1" to="24" fromLane="1" toLane="1" dir="s" state="M"/>
    <connection from=":2_1" to="24" fromLane="2" toLane="2" dir="s" state="M"/>
    <connection from=":2_1" to="24" fromLane="3" toLane="3" dir="s" state="M"/>
    <connection from=":2_1" to="24" fromLane="4" toLane="4" dir="s" state="M"/>

</net>
