<routes>
	<vehicle depart="0.1" departLane="0" departPos="50.92422158456879" departSpeed="0.0" id="316" type="bicycle">
		<route edges="213 271"/>
	</vehicle>
	<vehicle depart="0.1" departLane="0" departPos="58.56902014328695" departSpeed="6.8727089" id="317" type="bicycle">
		<route edges="220"/>
	</vehicle>
	<vehicle depart="0.1" departLane="0" departPos="16.40461813248592" departSpeed="0.2161156" id="347" type="bicycle">
		<route edges="213 271"/>
	</vehicle>
	<vehicle depart="0.1" departLane="0" departPos="66.96623383719853" departSpeed="7.6119257" id="346" type="bus">
		<route edges="276 220"/>
	</vehicle>
	<vehicle depart="0.1" departLane="0" departPos="40.82595148730289" departSpeed="7.2809477" id="349" type="bus">
		<route edges="276 273 270"/>
	</vehicle>
	<vehicle depart="0.1" departLane="0" departPos="59.54872437376463" departSpeed="2.7439457" id="32" type="passenger">
		<route edges="216 274"/>
	</vehicle>
	<vehicle depart="0.1" departLane="0" departPos="5.832100158225101" departSpeed="8.9859213" id="36" type="passenger">
		<route edges="277"/>
	</vehicle>
	<vehicle depart="0.1" departLane="0" departPos="50.83876959480899" departSpeed="1.8075149" id="37" type="passenger">
		<route edges="216 274"/>
	</vehicle>
	<vehicle depart="0.1" departLane="0" departPos="23.938401589138827" departSpeed="9.9433259" id="310" type="passenger">
		<route edges="273 270 267"/>
	</vehicle>
	<vehicle depart="0.1" departLane="0" departPos="9.10682508173256" departSpeed="5.065934" id="311" type="passenger">
		<route edges=":30_5 274 277"/>
	</vehicle>
	<vehicle depart="0.1" departLane="0" departPos="68.73478378549466" departSpeed="4.0294974" id="313" type="passenger">
		<route edges="216 274 277"/>
	</vehicle>
	<vehicle depart="0.1" departLane="0" departPos="42.77321301641068" departSpeed="0.99636541" id="319" type="passenger">
		<route edges="216 274"/>
	</vehicle>
	<vehicle depart="0.1" departLane="0" departPos="51.147173670958814" departSpeed="0.0" id="320" type="passenger">
		<route edges="213 271"/>
	</vehicle>
	<vehicle depart="0.1" departLane="0" departPos="35.19637328604885" departSpeed="0.45935587" id="323" type="passenger">
		<route edges="216 274"/>
	</vehicle>
	<vehicle depart="0.1" departLane="0" departPos="44.41984545995453" departSpeed="4.9934882e-05" id="325" type="passenger">
		<route edges="213 271"/>
	</vehicle>
	<vehicle depart="0.1" departLane="0" departPos="63.54917258072402" departSpeed="6.4568679" id="327" type="passenger">
		<route edges="219 273 270"/>
	</vehicle>
	<vehicle depart="0.1" departLane="0" departPos="51.694932881839115" departSpeed="5.6121877" id="328" type="passenger">
		<route edges="219 277"/>
	</vehicle>
	<vehicle depart="0.1" departLane="0" departPos="37.29187871471622" departSpeed="0.00076599017" id="330" type="passenger">
		<route edges="213 271"/>
	</vehicle>
	<vehicle depart="0.1" departLane="0" departPos="2.5" departSpeed="6.974399" id="332" type="passenger">
		<route edges=":30_0 217"/>
	</vehicle>
	<vehicle depart="0.1" departLane="0" departPos="33.51284476772035" departSpeed="3.1634036" id="336" type="passenger">
		<route edges="219 277"/>
	</vehicle>
	<vehicle depart="0.1" departLane="0" departPos="29.782468467382394" departSpeed="0.0054448073" id="337" type="passenger">
		<route edges="213 271"/>
	</vehicle>
	<vehicle depart="0.1" departLane="0" departPos="18.65468498737742" departSpeed="0.058503378" id="338" type="passenger">
		<route edges="216 274"/>
	</vehicle>
	<vehicle depart="0.1" departLane="0" departPos="9.030510140545005" departSpeed="8.7675878" id="341" type="passenger">
		<route edges="220"/>
	</vehicle>
	<vehicle depart="0.1" departLane="0" departPos="24.325620342201347" departSpeed="2.1728531" id="342" type="passenger">
		<route edges="219 277"/>
	</vehicle>
	<vehicle depart="0.1" departLane="0" departPos="22.425803475909653" departSpeed="0.037721145" id="343" type="passenger">
		<route edges="213 271"/>
	</vehicle>
	<vehicle depart="0.1" departLane="0" departPos="11.21727965343632" departSpeed="0.057636544" id="344" type="passenger">
		<route edges="216 274"/>
	</vehicle>
	<vehicle depart="0.1" departLane="0" departPos="16.005255116415725" departSpeed="1.5684246" id="348" type="passenger">
		<route edges="219 277"/>
	</vehicle>
	<vehicle depart="0.1" departLane="0" departPos="11.362177355474572" departSpeed="0.5528518" id="350" type="passenger">
		<route edges="213 271"/>
	</vehicle>
	<vehicle depart="0.1" departLane="0" departPos="7.628642694099172" departSpeed="1.1639542" id="351" type="passenger">
		<route edges="219 277"/>
	</vehicle>
	<vehicle depart="0.1" departLane="0" departPos="20.882929666323744" departSpeed="6.5105019" id="352" type="passenger">
		<route edges="276 273 270"/>
	</vehicle>
	<vehicle depart="0.1" departLane="0" departPos="9.59234509862883" departSpeed="4.2202781" id="354" type="passenger">
		<route edges="276 273"/>
	</vehicle>
	<vehicle depart="0.1" departLane="0" departPos="41.11927290535436" departSpeed="4.3025666" id="333" type="motorcycle">
		<route edges="219 277"/>
	</vehicle>
	<vehicle depart="0.1" departLane="0" departPos="23.29476216235568" departSpeed="9.7219341" id="335" type="motorcycle">
		<route edges="220"/>
	</vehicle>
	<vehicle depart="0.1" departLane="0" departPos="51.11884336303739" departSpeed="0.0" id="340" type="motorcycle">
		<route edges="213 271"/>
	</vehicle>
	<vehicle depart="0.1" departLane="0" departPos="3.563706017476541" departSpeed="0.11831641" id="353" type="motorcycle">
		<route edges="268 271"/>
	</vehicle>
	<vehicle depart="0.1" departLane="0" departPos="70.23852385120843" departSpeed="0.0" id="30" type="truck">
		<route edges="268 271"/>
	</vehicle>
	<vehicle depart="0.1" departLane="0" departPos="27.99372927536883" departSpeed="0.15927881" id="331" type="truck">
		<route edges="216 274"/>
	</vehicle>
</routes>
