<!-- generated on Wed Feb 10 12:32:49 2021 by Eclipse SUMO netconvert Version 1.8.0
<configuration xmlns:xsi="http://www.w3.org/2001/XMLSchema-instance" xsi:noNamespaceSchemaLocation="http://sumo.dlr.de/xsd/netconvertConfiguration.xsd">

    <input>
        <node-files value="./converted_scenarios/SUMO/DEU_Lohmar-66_1_I-1-1/DEU_Lohmar-66_1_I-1-1.nod.xml"/>
        <edge-files value="./converted_scenarios/SUMO/DEU_Lohmar-66_1_I-1-1/DEU_Lohmar-66_1_I-1-1.edg.xml"/>
        <connection-files value="./converted_scenarios/SUMO/DEU_Lohmar-66_1_I-1-1/DEU_Lohmar-66_1_I-1-1.con.xml"/>
        <tllogic-files value="./converted_scenarios/SUMO/DEU_Lohmar-66_1_I-1-1/DEU_Lohmar-66_1_I-1-1.tll.xml"/>
        <type-files value="/home/zen/commonroad-interactive-benchmarks/install/commonroad-map-tool/crmapconverter/sumo_map/templates/DEU.typ.xml"/>
    </input>

    <output>
        <output-file value="./converted_scenarios/SUMO/DEU_Lohmar-66_1_I-1-1/DEU_Lohmar-66_1_I-1-1.net.xml"/>
    </output>

    <processing>
        <geometry.remove.keep-edges.explicit value="true"/>
        <geometry.avoid-overlap value="true"/>
        <offset.disable-normalization value="true"/>
    </processing>

    <junctions>
        <no-turnarounds value="true"/>
        <junctions.internal-link-detail value="20"/>
    </junctions>

    <report>
        <aggregate-warnings value="5"/>
    </report>

    <random_number>
        <seed value="1234"/>
    </random_number>

</configuration>
--><net xmlns:xsi="http://www.w3.org/2001/XMLSchema-instance" version="1.6" junctionCornerDetail="5" junctionLinkDetail="20" limitTurnSpeed="5.50" xsi:noNamespaceSchemaLocation="http://sumo.dlr.de/xsd/net_file.xsd">

    <location netOffset="0.00,0.00" convBoundary="-5.55,-347.75,358.40,-230.91" origBoundary="-5.55,-356.66,358.40,-230.91" projParameter="!"/>

    <type id="highway.bridleway" priority="1" speed="2.78" allow="pedestrian" oneway="1" width="2.00"/>
    <type id="highway.bus_guideway" priority="1" speed="27.78" allow="bus" oneway="1"/>
    <type id="highway.cycleway" priority="1" speed="8.33" allow="bicycle" oneway="0" width="1.00"/>
    <type id="highway.footway" priority="1" speed="2.78" allow="pedestrian" oneway="1" width="2.00"/>
    <type id="highway.ford" priority="1" speed="2.78" allow="army" oneway="0"/>
    <type id="highway.living_street" priority="2" speed="2.78" disallow="tram rail_urban rail rail_electric rail_fast ship" oneway="0"/>
    <type id="highway.motorway" priority="14" speed="39.44" allow="private emergency authority army vip passenger hov taxi bus coach delivery truck trailer motorcycle evehicle custom1 custom2" oneway="1"/>
    <type id="highway.motorway_link" priority="9" speed="22.22" allow="private emergency authority army vip passenger hov taxi bus coach delivery truck trailer motorcycle evehicle custom1 custom2" oneway="1"/>
    <type id="highway.path" priority="1" speed="2.78" allow="pedestrian bicycle" oneway="0" width="2.00"/>
    <type id="highway.pedestrian" priority="1" speed="2.78" allow="pedestrian" oneway="1" width="2.00"/>
    <type id="highway.primary" priority="12" speed="27.78" disallow="pedestrian tram rail_urban rail rail_electric rail_fast ship" oneway="0"/>
    <type id="highway.primary_link" priority="7" speed="22.22" disallow="pedestrian tram rail_urban rail rail_electric rail_fast ship" oneway="0"/>
    <type id="highway.raceway" priority="15" speed="83.33" allow="vip" oneway="0"/>
    <type id="highway.residential" priority="3" speed="13.89" disallow="pedestrian tram rail_urban rail rail_electric rail_fast ship" oneway="0"/>
    <type id="highway.secondary" priority="11" speed="27.78" disallow="pedestrian tram rail_urban rail rail_electric rail_fast ship" oneway="0"/>
    <type id="highway.secondary_link" priority="6" speed="22.22" disallow="pedestrian tram rail_urban rail rail_electric rail_fast ship" oneway="0"/>
    <type id="highway.service" priority="1" speed="5.56" allow="pedestrian delivery bicycle" oneway="0"/>
    <type id="highway.stairs" priority="1" speed="1.39" allow="pedestrian" oneway="1" width="2.00"/>
    <type id="highway.step" priority="1" speed="1.39" allow="pedestrian" oneway="1" width="2.00"/>
    <type id="highway.steps" priority="1" speed="1.39" allow="pedestrian" oneway="1" width="2.00"/>
    <type id="highway.tertiary" priority="10" speed="22.22" disallow="pedestrian tram rail_urban rail rail_electric rail_fast ship" oneway="0"/>
    <type id="highway.tertiary_link" priority="5" speed="22.22" disallow="pedestrian tram rail_urban rail rail_electric rail_fast ship" oneway="0"/>
    <type id="highway.track" priority="1" speed="5.56" allow="pedestrian motorcycle moped bicycle" oneway="0"/>
    <type id="highway.trunk" priority="13" speed="27.78" disallow="pedestrian bicycle tram rail_urban rail rail_electric rail_fast ship" oneway="0"/>
    <type id="highway.trunk_link" priority="8" speed="22.22" disallow="pedestrian bicycle tram rail_urban rail rail_electric rail_fast ship" oneway="0"/>
    <type id="highway.unclassified" priority="4" speed="13.89" disallow="pedestrian tram rail_urban rail rail_electric rail_fast ship" oneway="0"/>
    <type id="highway.unsurfaced" priority="1" speed="8.33" disallow="tram rail_urban rail rail_electric rail_fast ship" oneway="0"/>
    <type id="railway.highspeed" priority="21" speed="69.44" allow="rail_fast" oneway="1"/>
    <type id="railway.light_rail" priority="19" speed="27.78" allow="rail_urban" oneway="1"/>
    <type id="railway.preserved" priority="16" speed="27.78" allow="rail" oneway="1"/>
    <type id="railway.rail" priority="20" speed="44.44" allow="rail" oneway="1"/>
    <type id="railway.subway" priority="18" speed="27.78" allow="rail_urban" oneway="1"/>
    <type id="railway.tram" priority="17" speed="13.89" allow="tram" oneway="1"/>

    <edge id=":29_0" function="internal">
        <lane id=":29_0_0" index="0" disallow="pedestrian tram rail_urban rail rail_electric rail_fast ship" speed="7.36" length="10.53" width="3.50" shape="292.63,-348.03 291.08,-348.00 289.63,-347.74 288.79,-347.42 288.03,-346.98 287.36,-346.42 286.78,-345.72 286.31,-344.94 285.75,-343.54 285.39,-342.05"/>
    </edge>
    <edge id=":29_1" function="internal">
        <lane id=":29_1_0" index="0" disallow="pedestrian tram rail_urban rail rail_electric rail_fast ship" speed="36.11" length="16.71" width="3.50" shape="292.63,-348.03 287.93,-348.31 275.98,-349.39"/>
    </edge>
    <edge id=":29_2" function="internal">
        <lane id=":29_2_0" index="0" disallow="pedestrian tram rail_urban rail rail_electric rail_fast ship" speed="36.11" length="16.45" width="3.50" shape="276.36,-352.87 288.21,-351.80 292.75,-351.53"/>
    </edge>
    <edge id=":29_3" function="internal">
        <lane id=":29_3_0" index="0" disallow="pedestrian tram rail_urban rail rail_electric rail_fast ship" speed="8.37" length="16.28" width="3.50" shape="276.36,-352.87 277.64,-352.69 279.56,-352.23 281.45,-351.45 282.71,-350.63 283.79,-349.60 284.66,-348.33 285.24,-346.92 285.53,-345.48 285.59,-344.04 285.39,-342.05"/>
    </edge>
    <edge id=":29_4" function="internal">
        <lane id=":29_4_0" index="0" disallow="pedestrian tram rail_urban rail rail_electric rail_fast ship" speed="6.84" length="10.46" width="3.50" shape="281.94,-342.65 282.07,-344.02 282.03,-344.93 281.83,-345.82 281.47,-346.65 280.93,-347.38 280.25,-347.98 279.48,-348.46 278.20,-348.96 276.87,-349.27 275.98,-349.39"/>
    </edge>
    <edge id=":29_5" function="internal">
        <lane id=":29_5_0" index="0" disallow="pedestrian tram rail_urban rail rail_electric rail_fast ship" speed="8.82" length="15.59" width="3.50" shape="281.94,-342.65 282.45,-344.72 283.25,-346.69 283.98,-347.90 284.90,-348.99 285.98,-349.90 287.21,-350.60 288.54,-351.10 290.63,-351.48 292.75,-351.53"/>
    </edge>
    <edge id=":30_0" function="internal">
        <lane id=":30_0_0" index="0" disallow="pedestrian tram rail_urban rail rail_electric rail_fast ship" speed="8.16" length="12.46" width="3.50" shape="179.96,-348.62 179.18,-348.40 177.94,-347.80 176.91,-346.98 176.07,-345.90 175.45,-344.63 175.00,-343.24 174.65,-341.20 174.52,-338.56"/>
    </edge>
    <edge id=":30_1" function="internal">
        <lane id=":30_1_0" index="0" disallow="pedestrian tram rail_urban rail rail_electric rail_fast ship" speed="36.11" length="17.73" width="3.50" shape="179.96,-348.62 177.17,-347.90 172.96,-346.50 168.39,-344.62 163.48,-342.20"/>
    </edge>
    <edge id=":30_2" function="internal">
        <lane id=":30_2_0" index="0" disallow="pedestrian tram rail_urban rail rail_electric rail_fast ship" speed="36.11" length="18.73" width="3.50" shape="161.82,-345.28 166.97,-347.82 171.77,-349.79 176.21,-351.26 179.23,-352.05"/>
    </edge>
    <edge id=":30_3" function="internal">
        <lane id=":30_3_0" index="0" disallow="pedestrian tram rail_urban rail rail_electric rail_fast ship" speed="7.92" length="18.92" width="3.50" shape="161.82,-345.28 163.21,-345.97 165.35,-346.79 166.97,-347.18 168.67,-347.27 169.66,-347.14 170.65,-346.82 171.54,-346.33 172.32,-345.69 172.96,-344.93 173.47,-344.05 174.05,-342.48 174.37,-340.86 174.52,-338.56"/>
    </edge>
    <edge id=":30_4" function="internal">
        <lane id=":30_4_0" index="0" disallow="pedestrian tram rail_urban rail rail_electric rail_fast ship" speed="6.27" length="11.25" width="3.50" shape="171.03,-338.54 171.00,-339.13 170.95,-339.72 170.87,-340.31 170.75,-340.89 170.58,-341.46 170.34,-342.00 170.03,-342.51 169.62,-342.94 169.12,-343.26 168.57,-343.44 167.98,-343.51 167.39,-343.50 166.80,-343.43 166.23,-343.32 165.66,-343.15 165.10,-342.95 164.55,-342.72 164.01,-342.47 163.48,-342.20"/>
    </edge>
    <edge id=":30_5" function="internal">
        <lane id=":30_5_0" index="0" disallow="pedestrian tram rail_urban rail rail_electric rail_fast ship" speed="9.51" length="17.26" width="3.50" shape="171.03,-338.54 171.20,-341.85 171.69,-344.46 172.34,-346.34 173.29,-348.09 174.57,-349.62 176.15,-350.83 177.95,-351.67 179.23,-352.05"/>
    </edge>
    <edge id=":31_0" function="internal">
        <lane id=":31_0_0" index="0" disallow="pedestrian tram rail_urban rail rail_electric rail_fast ship" speed="7.25" length="10.92" width="3.50" shape="65.11,-276.80 64.35,-278.01 63.40,-279.07 62.64,-279.65 61.80,-280.08 60.89,-280.35 59.94,-280.45 58.99,-280.41 57.59,-280.13 56.24,-279.66 55.82,-279.48"/>
    </edge>
    <edge id=":31_1" function="internal">
        <lane id=":31_1_0" index="0" disallow="pedestrian tram rail_urban rail rail_electric rail_fast ship" speed="8.61" length="16.02" width="3.50" shape="65.11,-276.80 64.25,-278.71 63.69,-280.72 63.54,-282.10 63.62,-283.49 63.96,-284.84 64.55,-286.10 65.35,-287.24 66.83,-288.71 68.53,-289.93 69.13,-290.29"/>
    </edge>
    <edge id=":31_2" function="internal">
        <lane id=":31_2_0" index="0" disallow="pedestrian tram rail_urban rail rail_electric rail_fast ship" speed="7.11" length="10.57" width="3.50" shape="70.87,-287.25 70.39,-286.97 69.92,-286.66 69.47,-286.33 69.04,-285.98 68.64,-285.60 68.26,-285.19 67.92,-284.75 67.63,-284.28 67.39,-283.77 67.23,-283.24 67.13,-282.70 67.10,-282.14 67.14,-281.59 67.22,-281.04 67.36,-280.50 67.53,-279.97 67.73,-279.45 67.95,-278.94 68.20,-278.44"/>
    </edge>
    <edge id=":31_3" function="internal">
        <lane id=":31_3_0" index="0" disallow="pedestrian tram rail_urban rail rail_electric rail_fast ship" speed="36.11" length="16.94" width="3.50" shape="70.87,-287.25 63.18,-283.07 55.82,-279.48"/>
    </edge>
    <edge id=":31_4" function="internal">
        <lane id=":31_4_0" index="0" disallow="pedestrian tram rail_urban rail rail_electric rail_fast ship" speed="36.11" length="16.63" width="3.50" shape="54.36,-282.66 61.58,-286.18 69.13,-290.29"/>
    </edge>
    <edge id=":31_5" function="internal">
        <lane id=":31_5_0" index="0" disallow="pedestrian tram rail_urban rail rail_electric rail_fast ship" speed="8.72" length="16.28" width="3.50" shape="54.36,-282.66 54.99,-282.92 56.85,-283.57 58.86,-283.96 60.32,-284.00 61.78,-283.82 63.22,-283.36 64.54,-282.66 65.72,-281.74 67.11,-280.18 68.20,-278.44"/>
    </edge>

    <edge id="213" from="26" to="31" priority="3" type="highway.residential" spreadType="center" length="50.85" shape="86.91,-230.91 62.32,-281.77">
        <lane id="213_0" index="0" disallow="pedestrian tram rail_urban rail rail_electric rail_fast ship" speed="36.11" length="50.85" width="3.49" customShape="1" shape="86.91,-230.91 82.90,-240.22 77.62,-252.21 73.03,-261.70 65.10,-276.82"/>
    </edge>
    <edge id="214" from="31" to="22" priority="3" type="highway.residential" spreadType="center" length="51.10" shape="65.47,-283.30 90.12,-232.31">
        <lane id="214_0" index="0" disallow="pedestrian tram rail_urban rail rail_electric rail_fast ship" speed="36.11" length="51.10" width="3.50" customShape="1" shape="68.20,-278.44 76.16,-263.27 80.80,-253.67 86.11,-241.60 90.12,-232.31"/>
    </edge>
    <edge id="216" from="15" to="30" priority="3" type="highway.residential" spreadType="center" length="70.01" shape="145.61,-285.55 170.10,-344.93">
        <lane id="216_0" index="0" disallow="pedestrian tram rail_urban rail rail_electric rail_fast ship" speed="36.11" length="70.01" width="3.50" customShape="1" shape="145.61,-285.55 147.37,-286.13 151.88,-287.16 156.15,-288.17 162.90,-290.49 165.64,-291.60 167.24,-292.53 168.28,-293.37 169.15,-294.33 169.80,-295.37 170.25,-296.52 170.62,-298.26 171.37,-306.25 171.50,-311.16 171.17,-321.68 171.03,-338.54"/>
    </edge>
    <edge id="217" from="30" to="25" priority="3" type="highway.residential" spreadType="center" length="70.00" shape="173.35,-343.65 150.95,-283.36">
        <lane id="217_0" index="0" disallow="pedestrian tram rail_urban rail rail_electric rail_fast ship" speed="36.11" length="70.00" width="3.50" customShape="1" shape="174.52,-338.56 174.66,-321.77 175.00,-311.17 174.86,-306.03 174.07,-297.70 173.57,-295.45 172.88,-293.74 171.89,-292.16 170.63,-290.78 169.19,-289.63 167.16,-288.45 164.09,-287.20 157.10,-284.81 152.63,-283.74 150.95,-283.36"/>
    </edge>
    <edge id="219" from="27" to="29" priority="3" type="highway.residential" spreadType="center" length="68.07" shape="265.08,-277.00 282.49,-348.21">
        <lane id="219_0" index="0" disallow="pedestrian tram rail_urban rail rail_electric rail_fast ship" speed="36.11" length="68.07" width="3.49" customShape="1" shape="265.08,-277.00 269.71,-287.55 271.45,-292.13 273.43,-298.80 275.48,-307.04 277.49,-316.85 281.94,-342.66"/>
    </edge>
    <edge id="220" from="29" to="5" priority="3" type="highway.residential" spreadType="center" length="68.89" shape="285.88,-347.38 268.29,-275.61">
        <lane id="220_0" index="0" disallow="pedestrian tram rail_urban rail rail_electric rail_fast ship" speed="36.11" length="68.89" width="3.50" customShape="1" shape="285.39,-342.05 280.93,-316.20 278.89,-306.27 276.81,-297.88 274.76,-291.00 272.95,-286.21 268.29,-275.61"/>
    </edge>
    <edge id="267" from="31" to="20" priority="3" type="highway.residential" spreadType="center" length="70.00" shape="64.79,-280.97 -4.03,-243.50">
        <lane id="267_0" index="0" disallow="pedestrian tram rail_urban rail rail_electric rail_fast ship" speed="36.11" length="70.00" width="3.50" customShape="1" shape="55.82,-279.48 51.65,-277.56 43.00,-273.41 36.36,-269.81 22.48,-261.75 13.14,-255.93 5.30,-250.60 -1.51,-245.54 -4.03,-243.50"/>
    </edge>
    <edge id="268" from="28" to="31" priority="3" type="highway.residential" spreadType="center" length="70.00" shape="-5.55,-246.77 63.11,-284.04">
        <lane id="268_0" index="0" disallow="pedestrian tram rail_urban rail rail_electric rail_fast ship" speed="36.11" length="70.00" width="3.50" customShape="1" shape="-5.55,-246.77 -3.65,-248.31 3.27,-253.45 11.24,-258.86 20.68,-264.75 34.64,-272.86 41.42,-276.53 50.17,-280.73 54.36,-282.66"/>
    </edge>
    <edge id="270" from="30" to="31" priority="3" type="highway.residential" spreadType="center" length="107.69" shape="172.57,-342.70 64.76,-280.95">
        <lane id="270_0" index="0" disallow="pedestrian tram rail_urban rail rail_electric rail_fast ship" speed="36.11" length="107.69" width="3.50" customShape="1" shape="163.48,-342.20 162.61,-341.73 153.07,-336.26 131.73,-323.16 77.08,-290.81 70.87,-287.25"/>
    </edge>
    <edge id="271" from="31" to="30" priority="3" type="highway.residential" spreadType="center" length="107.82" shape="63.02,-283.99 170.83,-345.73">
        <lane id="271_0" index="0" disallow="pedestrian tram rail_urban rail rail_electric rail_fast ship" speed="36.11" length="107.82" width="3.50" customShape="1" shape="69.13,-290.29 75.32,-293.84 129.91,-326.15 151.29,-339.27 160.93,-344.79 161.86,-345.30"/>
    </edge>
    <edge id="273" from="29" to="30" priority="3" type="highway.residential" spreadType="center" length="96.49" shape="284.23,-346.01 171.73,-342.47">
        <lane id="273_0" index="0" disallow="pedestrian tram rail_urban rail rail_electric rail_fast ship" speed="36.11" length="96.49" width="3.50" customShape="1" shape="275.98,-349.39 254.03,-351.77 242.58,-352.72 233.13,-353.14 225.10,-353.16 216.57,-352.78 190.78,-350.67 186.85,-350.09 179.96,-348.63"/>
    </edge>
    <edge id="274" from="30" to="29" priority="3" type="highway.residential" spreadType="center" length="97.60" shape="171.62,-345.96 284.12,-349.50">
        <lane id="274_0" index="0" disallow="pedestrian tram rail_urban rail rail_electric rail_fast ship" speed="36.11" length="97.60" width="3.50" customShape="1" shape="179.23,-352.05 186.23,-353.53 190.40,-354.15 216.35,-356.27 225.03,-356.66 233.21,-356.64 242.81,-356.21 254.37,-355.25 276.36,-352.87"/>
    </edge>
    <edge id="276" from="17" to="29" priority="3" type="highway.residential" spreadType="center" length="70.00" shape="357.48,-330.28 283.77,-346.05">
        <lane id="276_0" index="0" disallow="pedestrian tram rail_urban rail rail_electric rail_fast ship" speed="36.11" length="70.00" width="3.50" customShape="1" shape="357.48,-330.28 354.86,-333.75 352.91,-335.93 351.15,-337.54 348.80,-339.23 346.30,-340.68 343.21,-342.08 339.49,-343.35 334.19,-344.72 328.39,-345.83 322.03,-346.66 314.62,-347.24 292.63,-348.03"/>
    </edge>
    <edge id="277" from="29" to="10" priority="3" type="highway.residential" spreadType="center" length="70.00" shape="284.47,-349.48 358.40,-334.87">
        <lane id="277_0" index="0" disallow="pedestrian tram rail_urban rail rail_electric rail_fast ship" speed="36.11" length="70.00" width="3.50" customShape="1" shape="292.75,-351.53 314.82,-350.74 322.40,-350.15 328.95,-349.29 334.97,-348.13 340.50,-346.70 344.50,-345.33 347.91,-343.78 350.72,-342.16 353.37,-340.24 355.41,-338.38 357.58,-335.96 358.40,-334.87"/>
    </edge>

    <junction id="10" type="dead_end" x="358.40" y="-334.87" incLanes="277_0" intLanes="" shape="359.80,-335.92 357.00,-333.81" rightOfWay="edgePriority"/>
    <junction id="15" type="dead_end" x="145.61" y="-285.55" incLanes="" intLanes="" shape="146.15,-283.89 145.07,-287.22" rightOfWay="edgePriority"/>
    <junction id="17" type="dead_end" x="357.48" y="-330.28" incLanes="" intLanes="" shape="358.87,-331.33 356.08,-329.23" rightOfWay="edgePriority"/>
    <junction id="20" type="dead_end" x="-4.03" y="-243.50" incLanes="267_0" intLanes="" shape="-2.93,-242.14 -5.13,-244.86" rightOfWay="edgePriority"/>
    <junction id="22" type="dead_end" x="90.12" y="-232.31" incLanes="214_0" intLanes="" shape="91.73,-233.00 88.51,-231.62" rightOfWay="edgePriority"/>
    <junction id="25" type="dead_end" x="150.95" y="-283.36" incLanes="217_0" intLanes="" shape="151.34,-281.66 150.57,-285.06" rightOfWay="edgePriority"/>
    <junction id="26" type="dead_end" x="86.91" y="-230.91" incLanes="" intLanes="" shape="88.51,-231.61 85.30,-230.22" rightOfWay="edgePriority"/>
    <junction id="27" type="dead_end" x="265.08" y="-277.00" incLanes="" intLanes="" shape="266.68,-276.30 263.48,-277.70" rightOfWay="edgePriority"/>
    <junction id="28" type="dead_end" x="-5.55" y="-246.77" incLanes="" intLanes="" shape="-4.45,-245.41 -6.66,-248.13" rightOfWay="edgePriority"/>
    <junction id="29" type="priority" x="284.17" y="-347.75" incLanes="276_0 274_0 219_0" intLanes=":29_0_0 :29_1_0 :29_2_0 :29_3_0 :29_4_0 :29_5_0" shape="292.56,-346.28 292.81,-353.27 276.55,-354.61 275.79,-347.65 278.57,-346.88 279.47,-346.20 280.05,-345.31 280.30,-344.23 280.22,-342.94 287.11,-341.75 288.08,-344.34 288.88,-345.23 289.89,-345.85 291.12,-346.20">
        <request index="0" response="000000" foes="001000" cont="0"/>
        <request index="1" response="000000" foes="111000" cont="0"/>
        <request index="2" response="000000" foes="100000" cont="0"/>
        <request index="3" response="000011" foes="100011" cont="0"/>
        <request index="4" response="000010" foes="000010" cont="0"/>
        <request index="5" response="001110" foes="001110" cont="0"/>
    </junction>
    <junction id="30" type="priority" x="171.70" y="-344.22" incLanes="273_0 271_0 216_0" intLanes=":30_0_0 :30_1_0 :30_2_0 :30_3_0 :30_4_0 :30_5_0" shape="180.32,-346.92 178.87,-353.76 174.87,-352.87 171.94,-352.09 169.58,-351.25 167.29,-350.20 164.60,-348.77 160.99,-346.82 164.31,-340.66 167.05,-341.60 168.02,-341.45 168.71,-340.89 169.13,-339.91 169.28,-338.52 176.27,-338.58 176.37,-340.89 176.69,-342.83 177.25,-344.40 178.04,-345.60 179.07,-346.44">
        <request index="0" response="000000" foes="001000" cont="0"/>
        <request index="1" response="000000" foes="111000" cont="0"/>
        <request index="2" response="000000" foes="100000" cont="0"/>
        <request index="3" response="000011" foes="100011" cont="0"/>
        <request index="4" response="000010" foes="000010" cont="0"/>
        <request index="5" response="001110" foes="001110" cont="0"/>
    </junction>
    <junction id="31" type="priority" x="63.91" y="-282.49" incLanes="213_0 270_0 268_0" intLanes=":31_0_0 :31_1_0 :31_2_0 :31_3_0 :31_4_0 :31_5_0" shape="63.56,-276.01 69.75,-279.26 69.02,-281.80 69.18,-282.93 69.68,-283.96 70.54,-284.89 71.74,-285.73 68.26,-291.80 65.22,-290.06 62.96,-288.79 61.07,-287.78 59.16,-286.82 56.81,-285.71 53.63,-284.25 56.55,-277.89 59.49,-278.67 60.73,-278.53 61.82,-278.04 62.76,-277.20">
        <request index="0" response="001000" foes="001000" cont="0"/>
        <request index="1" response="111000" foes="111000" cont="0"/>
        <request index="2" response="000000" foes="100000" cont="0"/>
        <request index="3" response="000000" foes="100011" cont="0"/>
        <request index="4" response="000000" foes="000010" cont="0"/>
        <request index="5" response="001100" foes="001110" cont="0"/>
    </junction>
    <junction id="5" type="dead_end" x="268.29" y="-275.61" incLanes="220_0" intLanes="" shape="269.89,-274.91 266.69,-276.32" rightOfWay="edgePriority"/>

    <connection from="213" to="267" fromLane="0" toLane="0" contPos="-4.00" shape="65.11,-276.80 64.35,-278.01 63.40,-279.07 62.64,-279.65 61.80,-280.08 60.89,-280.35 59.94,-280.45 58.99,-280.41 57.59,-280.13 56.24,-279.66 55.82,-279.48" via=":31_0_0" dir="r" state="m"/>
    <connection from="213" to="271" fromLane="0" toLane="0" contPos="-4.00" shape="65.11,-276.80 64.25,-278.71 63.69,-280.72 63.54,-282.10 63.62,-283.49 63.96,-284.84 64.55,-286.10 65.35,-287.24 66.83,-288.71 68.53,-289.93 69.13,-290.29" via=":31_1_0" dir="l" state="m"/>
    <connection from="216" to="270" fromLane="0" toLane="0" contPos="-4.00" shape="171.03,-338.54 171.00,-339.13 170.95,-339.72 170.87,-340.31 170.75,-340.89 170.58,-341.46 170.34,-342.00 170.03,-342.51 169.62,-342.94 169.12,-343.26 168.57,-343.44 167.98,-343.51 167.39,-343.50 166.80,-343.43 166.23,-343.32 165.66,-343.15 165.10,-342.95 164.55,-342.72 164.01,-342.47 163.48,-342.20" via=":30_4_0" dir="r" state="m"/>
    <connection from="216" to="274" fromLane="0" toLane="0" contPos="-4.00" shape="171.03,-338.54 171.20,-341.85 171.69,-344.46 172.34,-346.34 173.29,-348.09 174.57,-349.62 176.15,-350.83 177.95,-351.67 179.23,-352.05" via=":30_5_0" dir="l" state="m"/>
    <connection from="219" to="273" fromLane="0" toLane="0" contPos="-4.00" shape="281.94,-342.66 282.07,-344.02 282.03,-344.93 281.83,-345.82 281.47,-346.65 280.93,-347.38 280.25,-347.98 279.48,-348.46 278.20,-348.96 276.87,-349.27 275.98,-349.39" via=":29_4_0" dir="r" state="m"/>
    <connection from="219" to="277" fromLane="0" toLane="0" contPos="-4.00" shape="281.94,-342.66 282.45,-344.72 283.25,-346.69 283.98,-347.90 284.90,-348.99 285.98,-349.90 287.21,-350.60 288.54,-351.10 290.63,-351.48 292.75,-351.53" via=":29_5_0" dir="l" state="m"/>
    <connection from="268" to="271" fromLane="0" toLane="0" contPos="-4.00" shape="54.36,-282.66 61.58,-286.18 69.13,-290.29" via=":31_4_0" dir="s" state="M"/>
    <connection from="268" to="214" fromLane="0" toLane="0" contPos="-4.00" shape="54.36,-282.66 54.99,-282.92 56.85,-283.57 58.86,-283.96 60.32,-284.00 61.78,-283.82 63.22,-283.36 64.54,-282.66 65.72,-281.74 67.11,-280.18 68.20,-278.44" via=":31_5_0" dir="l" state="m"/>
    <connection from="270" to="214" fromLane="0" toLane="0" contPos="-4.00" shape="70.87,-287.25 70.39,-286.97 69.92,-286.66 69.47,-286.33 69.04,-285.98 68.64,-285.60 68.26,-285.19 67.92,-284.75 67.63,-284.28 67.39,-283.77 67.23,-283.24 67.13,-282.70 67.10,-282.14 67.14,-281.59 67.22,-281.04 67.36,-280.50 67.53,-279.97 67.73,-279.45 67.95,-278.94 68.20,-278.44" via=":31_2_0" dir="r" state="M"/>
    <connection from="270" to="267" fromLane="0" toLane="0" contPos="-4.00" shape="70.87,-287.25 63.18,-283.07 55.82,-279.48" via=":31_3_0" dir="s" state="M"/>
    <connection from="271" to="274" fromLane="0" toLane="0" contPos="-4.00" shape="161.86,-345.30 166.97,-347.82 171.77,-349.79 176.21,-351.26 179.23,-352.05" via=":30_2_0" dir="s" state="M"/>
    <connection from="271" to="217" fromLane="0" toLane="0" contPos="-4.00" shape="161.86,-345.30 163.21,-345.97 165.35,-346.79 166.97,-347.18 168.67,-347.27 169.66,-347.14 170.65,-346.82 171.54,-346.33 172.32,-345.69 172.96,-344.93 173.47,-344.05 174.05,-342.48 174.37,-340.86 174.52,-338.56" via=":30_3_0" dir="l" state="m"/>
    <connection from="273" to="217" fromLane="0" toLane="0" contPos="-4.00" shape="180.07,-348.65 179.18,-348.40 177.94,-347.80 176.91,-346.98 176.07,-345.90 175.45,-344.63 175.00,-343.24 174.65,-341.20 174.52,-338.56" via=":30_0_0" dir="r" state="M"/>
    <connection from="273" to="270" fromLane="0" toLane="0" contPos="-4.00" shape="180.07,-348.65 177.17,-347.90 172.96,-346.50 168.39,-344.62 163.48,-342.20" via=":30_1_0" dir="s" state="M"/>
    <connection from="274" to="277" fromLane="0" toLane="0" contPos="-4.00" shape="276.36,-352.87 288.21,-351.80 292.75,-351.53" via=":29_2_0" dir="s" state="M"/>
    <connection from="274" to="220" fromLane="0" toLane="0" contPos="-4.00" shape="276.36,-352.87 277.64,-352.69 279.56,-352.23 281.45,-351.45 282.71,-350.63 283.79,-349.60 284.66,-348.33 285.24,-346.92 285.53,-345.48 285.59,-344.04 285.39,-342.05" via=":29_3_0" dir="l" state="m"/>
    <connection from="276" to="220" fromLane="0" toLane="0" contPos="-4.00" shape="292.63,-348.03 291.08,-348.00 289.63,-347.74 288.79,-347.42 288.03,-346.98 287.36,-346.42 286.78,-345.72 286.31,-344.94 285.75,-343.54 285.39,-342.05" via=":29_0_0" dir="r" state="M"/>
    <connection from="276" to="273" fromLane="0" toLane="0" contPos="-4.00" shape="292.63,-348.03 287.93,-348.31 275.98,-349.39" via=":29_1_0" dir="s" state="M"/>

    <connection from=":29_0" to="220" fromLane="0" toLane="0" dir="r" state="M"/>
    <connection from=":29_1" to="273" fromLane="0" toLane="0" dir="s" state="M"/>
    <connection from=":29_2" to="277" fromLane="0" toLane="0" dir="s" state="M"/>
    <connection from=":29_3" to="220" fromLane="0" toLane="0" dir="l" state="M"/>
    <connection from=":29_4" to="273" fromLane="0" toLane="0" dir="r" state="M"/>
    <connection from=":29_5" to="277" fromLane="0" toLane="0" dir="l" state="M"/>
    <connection from=":30_0" to="217" fromLane="0" toLane="0" dir="r" state="M"/>
    <connection from=":30_1" to="270" fromLane="0" toLane="0" dir="s" state="M"/>
    <connection from=":30_2" to="274" fromLane="0" toLane="0" dir="s" state="M"/>
    <connection from=":30_3" to="217" fromLane="0" toLane="0" dir="l" state="M"/>
    <connection from=":30_4" to="270" fromLane="0" toLane="0" dir="r" state="M"/>
    <connection from=":30_5" to="274" fromLane="0" toLane="0" dir="l" state="M"/>
    <connection from=":31_0" to="267" fromLane="0" toLane="0" dir="r" state="M"/>
    <connection from=":31_1" to="271" fromLane="0" toLane="0" dir="l" state="M"/>
    <connection from=":31_2" to="214" fromLane="0" toLane="0" dir="r" state="M"/>
    <connection from=":31_3" to="267" fromLane="0" toLane="0" dir="s" state="M"/>
    <connection from=":31_4" to="271" fromLane="0" toLane="0" dir="s" state="M"/>
    <connection from=":31_5" to="214" fromLane="0" toLane="0" dir="l" state="M"/>

</net>