<routes>
	<vehicle depart="0.1" departLane="0" departPos="1.0" departSpeed="4.9394637" id="37" type="bicycle">
		<route edges="519 516"/>
	</vehicle>
	<vehicle depart="0.1" departLane="0" departPos="6.165513574631392" departSpeed="0.0" id="312" type="bicycle">
		<route edges="523 10"/>
	</vehicle>
	<vehicle depart="0.1" departLane="0" departPos="69.26456555610051" departSpeed="0.0" id="338" type="bicycle">
		<route edges="8 11"/>
	</vehicle>
	<vehicle depart="0.1" departLane="0" departPos="12.444121328616625" departSpeed="0.73186394" id="365" type="bicycle">
		<route edges="519 516 1492 456 453"/>
	</vehicle>
	<vehicle depart="0.1" departLane="0" departPos="11.50365948278839" departSpeed="4.9869078e-05" id="336" type="bus">
		<route edges="11 14"/>
	</vehicle>
	<vehicle depart="0.1" departLane="0" departPos="10.028130528296613" departSpeed="3.6312768" id="360" type="bus">
		<route edges="517 1497"/>
	</vehicle>
	<vehicle depart="0.1" departLane="0" departPos="69.91513519225818" departSpeed="1.3657206" id="31" type="passenger">
		<route edges="64 463"/>
	</vehicle>
	<vehicle depart="0.1" departLane="0" departPos="50.690174350655546" departSpeed="14.039" id="32" type="passenger">
		<route edges="349"/>
	</vehicle>
	<vehicle depart="0.1" departLane="0" departPos="60.491001265092024" departSpeed="2.3134665" id="34" type="passenger">
		<route edges="64 463"/>
	</vehicle>
	<vehicle depart="0.1" departLane="0" departPos="30.987860372949445" departSpeed="0.0" id="39" type="passenger">
		<route edges="459 519"/>
	</vehicle>
	<vehicle depart="0.1" departLane="0" departPos="61.0940025883496" departSpeed="0.0" id="313" type="passenger">
		<route edges="350 11"/>
	</vehicle>
	<vehicle depart="0.1" departLane="0" departPos="58.281074634410274" departSpeed="0.0" id="314" type="passenger">
		<route edges="310 453"/>
	</vehicle>
	<vehicle depart="0.1" departLane="0" departPos="16.853595433053805" departSpeed="6.9728794" id="315" type="passenger">
		<route edges=":52_3 349"/>
	</vehicle>
	<vehicle depart="0.1" departLane="0" departPos="18.59812429388771" departSpeed="0.0" id="318" type="passenger">
		<route edges="11 14"/>
	</vehicle>
	<vehicle depart="0.1" departLane="0" departPos="65.72314480114517" departSpeed="0.0" id="319" type="passenger">
		<route edges="310 457"/>
	</vehicle>
	<vehicle depart="0.1" departLane="0" departPos="11.664863778147492" departSpeed="0.0" id="320" type="passenger">
		<route edges="523 10"/>
	</vehicle>
	<vehicle depart="0.1" departLane="0" departPos="11.621403557388666" departSpeed="4.7152173" id="322" type="passenger">
		<route edges=":54_2 459 519"/>
	</vehicle>
	<vehicle depart="0.1" departLane="0" departPos="50.773446213856374" departSpeed="0.0" id="323" type="passenger">
		<route edges="310 453"/>
	</vehicle>
	<vehicle depart="0.1" departLane="0" departPos="54.134592069382144" departSpeed="0.0" id="324" type="passenger">
		<route edges="350 11"/>
	</vehicle>
	<vehicle depart="0.1" departLane="0" departPos="26.587831364918884" departSpeed="7.6733258" id="327" type="passenger">
		<route edges="10 7"/>
	</vehicle>
	<vehicle depart="0.1" departLane="0" departPos="46.77564561286804" departSpeed="3.2144843e-05" id="328" type="passenger">
		<route edges="350 11"/>
	</vehicle>
	<vehicle depart="0.1" departLane="0" departPos="5.7977405710862016" departSpeed="0.0043793653" id="329" type="passenger">
		<route edges="14 516"/>
	</vehicle>
	<vehicle depart="0.1" departLane="0" departPos="25.564658156925752" departSpeed="0.0" id="330" type="passenger">
		<route edges="11 14 516"/>
	</vehicle>
	<vehicle depart="0.1" departLane="0" departPos="12.56500658230723" departSpeed="0.0" id="331" type="passenger">
		<route edges="519 516"/>
	</vehicle>
	<vehicle depart="0.1" departLane="0" departPos="43.27373594913407" departSpeed="0.0" id="333" type="passenger">
		<route edges="310 453"/>
	</vehicle>
	<vehicle depart="0.1" departLane="0" departPos="51.353737108373345" departSpeed="2.0688441" id="334" type="passenger">
		<route edges="64 463"/>
	</vehicle>
	<vehicle depart="0.1" departLane="0" departPos="39.6751070130667" departSpeed="0.00021011367" id="335" type="passenger">
		<route edges="350 11"/>
	</vehicle>
	<vehicle depart="0.1" departLane="0" departPos="36.17387630120986" departSpeed="0.0" id="337" type="passenger">
		<route edges="310 453"/>
	</vehicle>
	<vehicle depart="0.1" departLane="0" departPos="5.5173985923949695" departSpeed="0.0" id="339" type="passenger">
		<route edges="519 516"/>
	</vehicle>
	<vehicle depart="0.1" departLane="0" departPos="16.65863147668419" departSpeed="0.0" id="342" type="passenger">
		<route edges="13 10 349"/>
	</vehicle>
	<vehicle depart="0.1" departLane="0" departPos="42.668167804198994" departSpeed="1.442209" id="343" type="passenger">
		<route edges="64 463"/>
	</vehicle>
	<vehicle depart="0.1" departLane="0" departPos="32.89957751223694" departSpeed="0.00096113201" id="345" type="passenger">
		<route edges="350 11"/>
	</vehicle>
	<vehicle depart="0.1" departLane="0" departPos="34.65984676154373" departSpeed="0.88131819" id="347" type="passenger">
		<route edges="64 463"/>
	</vehicle>
	<vehicle depart="0.1" departLane="0" departPos="25.248905268506032" departSpeed="0.0" id="351" type="passenger">
		<route edges="310 453"/>
	</vehicle>
	<vehicle depart="0.1" departLane="0" departPos="69.0320914347889" departSpeed="0.0" id="352" type="passenger">
		<route edges="8 11"/>
	</vehicle>
	<vehicle depart="0.1" departLane="0" departPos="7.297265078474014" departSpeed="2.2973005" id="354" type="passenger">
		<route edges="13 10 349"/>
	</vehicle>
	<vehicle depart="0.1" departLane="0" departPos="26.922759531825236" departSpeed="0.40447383" id="355" type="passenger">
		<route edges="64 463"/>
	</vehicle>
	<vehicle depart="0.1" departLane="0" departPos="61.52765408260575" departSpeed="9.0979695e-05" id="358" type="passenger">
		<route edges="8 11"/>
	</vehicle>
	<vehicle depart="0.1" departLane="0" departPos="23.862762155913206" departSpeed="4.5373442e-05" id="359" type="passenger">
		<route edges="459 519"/>
	</vehicle>
	<vehicle depart="0.1" departLane="0" departPos="20.890216987097496" departSpeed="0.010278768" id="361" type="passenger">
		<route edges="350 11"/>
	</vehicle>
	<vehicle depart="0.1" departLane="0" departPos="54.02218990521904" departSpeed="0.0011987935" id="363" type="passenger">
		<route edges="8 11"/>
	</vehicle>
	<vehicle depart="0.1" departLane="0" departPos="19.73260293303069" departSpeed="0.13432651" id="364" type="passenger">
		<route edges="64 463"/>
	</vehicle>
	<vehicle depart="0.1" departLane="0" departPos="2.5" departSpeed="6.8654571" id="366" type="passenger">
		<route edges="1433 517"/>
	</vehicle>
	<vehicle depart="0.1" departLane="0" departPos="46.66736643190629" departSpeed="0.0078766726" id="368" type="passenger">
		<route edges="8 11"/>
	</vehicle>
	<vehicle depart="0.1" departLane="0" departPos="91.2998030656385" departSpeed="8.9447893" id="369" type="passenger">
		<route edges="457 1433 517"/>
	</vehicle>
	<vehicle depart="0.1" departLane="0" departPos="12.973689176253293" departSpeed="0.047380689" id="372" type="passenger">
		<route edges="64 463"/>
	</vehicle>
	<vehicle depart="0.1" departLane="0" departPos="13.545272463150791" departSpeed="0.024665191" id="374" type="passenger">
		<route edges="350 11"/>
	</vehicle>
	<vehicle depart="0.1" departLane="0" departPos="35.03163406934817" departSpeed="16.544736" id="376" type="passenger">
		<route edges="457 1433"/>
	</vehicle>
	<vehicle depart="0.1" departLane="0" departPos="6.517764370473101" departSpeed="1.0791003e-05" id="377" type="passenger">
		<route edges="462 459"/>
	</vehicle>
	<vehicle depart="0.1" departLane="0" departPos="51.98655595961825" departSpeed="9.6867848" id="381" type="passenger">
		<route edges="454 457 1433"/>
	</vehicle>
	<vehicle depart="0.1" departLane="0" departPos="6.102167902680296" departSpeed="0.027702263" id="382" type="passenger">
		<route edges="64 463"/>
	</vehicle>
	<vehicle depart="0.1" departLane="0" departPos="6.394232316806051" departSpeed="0.0521025" id="383" type="passenger">
		<route edges="350 11"/>
	</vehicle>
	<vehicle depart="0.1" departLane="0" departPos="35.90963839852406" departSpeed="9.2541127" id="384" type="passenger">
		<route edges="454 457 1433"/>
	</vehicle>
	<vehicle depart="0.1" departLane="0" departPos="19.577161654357788" departSpeed="6.9001723" id="386" type="passenger">
		<route edges="454 457 1433"/>
	</vehicle>
	<vehicle depart="0.1" departLane="0" departPos="8.807585283419948" departSpeed="3.7235061" id="387" type="passenger">
		<route edges="454 457 1433 517 1497"/>
	</vehicle>
	<vehicle depart="0.1" departLane="0" departPos="10.001484981534375" departSpeed="0.0023190398" id="33" type="motorcycle">
		<route edges="14 516"/>
	</vehicle>
	<vehicle depart="0.1" departLane="0" departPos="39.12209425665617" departSpeed="15.197793" id="332" type="motorcycle">
		<route edges="349"/>
	</vehicle>
	<vehicle depart="0.1" departLane="0" departPos="8.786545031925645" departSpeed="5.7018519" id="340" type="motorcycle">
		<route edges=":55_5 13 10 7"/>
	</vehicle>
	<vehicle depart="0.1" departLane="0" departPos="29.466937337198083" departSpeed="0.0" id="341" type="motorcycle">
		<route edges="310 453"/>
	</vehicle>
	<vehicle depart="0.1" departLane="0" departPos="25.721354894014105" departSpeed="0.0034471395" id="353" type="motorcycle">
		<route edges="350 11"/>
	</vehicle>
	<vehicle depart="0.1" departLane="0" departPos="39.28690606585165" departSpeed="0.034312589" id="370" type="motorcycle">
		<route edges="8 11"/>
	</vehicle>
	<vehicle depart="0.1" departLane="0" departPos="21.58741278576902" departSpeed="0.0" id="30" type="truck">
		<route edges="523 10"/>
	</vehicle>
	<vehicle depart="0.1" departLane="0" departPos="70.29480594120548" departSpeed="0.0" id="321" type="truck">
		<route edges="350 11"/>
	</vehicle>
	<vehicle depart="0.1" departLane="0" departPos="16.817589699562895" departSpeed="0.00047353737" id="362" type="truck">
		<route edges="459 519"/>
	</vehicle>
	<vehicle depart="0.1" departLane="0" departPos="16.527436327270568" departSpeed="0.0" id="371" type="truck">
		<route edges="462 459"/>
	</vehicle>
	<vehicle depart="0.1" departLane="0" departPos="70.3664421675245" departSpeed="10.357628" id="379" type="truck">
		<route edges="454 457 1433"/>
	</vehicle>
</routes>
