<routes>
	<vehicle depart="0.1" departLane="0" departPos="306.76478313621277" departSpeed="5.3796" id="32" type="passenger">
		<route edges="1414 1431 1443 1424"/>
	</vehicle>
	<vehicle depart="0.1" departLane="1" departPos="237.15610390216906" departSpeed="11.4995" id="33" type="passenger">
		<route edges="1414 1431 1441 1419 1444 1436 1422"/>
	</vehicle>
	<vehicle depart="0.1" departLane="0" departPos="84.27502860469659" departSpeed="0.0" id="36" type="passenger">
		<route edges="1423 1434 1422"/>
	</vehicle>
	<vehicle depart="0.1" departLane="0" departPos="84.27502860469659" departSpeed="0.0042" id="37" type="passenger">
		<route edges="1423 1434 1422"/>
	</vehicle>
	<vehicle depart="0.1" departLane="0" departPos="36.127818645610034" departSpeed="13.7107" id="38" type="passenger">
		<route edges="1424"/>
	</vehicle>
	<vehicle depart="0.1" departLane="0" departPos="290.73007198807" departSpeed="6.2107" id="39" type="passenger">
		<route edges="1414 1431 1443 1424"/>
	</vehicle>
	<vehicle depart="0.1" departLane="0" departPos="0" departSpeed="9.0842" id="311" type="passenger">
		<route edges="1422"/>
	</vehicle>
	<vehicle depart="0.1" departLane="1" departPos="277.90865382847755" departSpeed="10.4693" id="312" type="passenger">
		<route edges="1414 1431 1421 1441 1419 1444 1426 1436 1422"/>
	</vehicle>
	<vehicle depart="0.1" departLane="1" departPos="213.91988617146077" departSpeed="12.5335" id="313" type="passenger">
		<route edges="1414 1431 1441 1419 1444 1426 1436 1422"/>
	</vehicle>
	<vehicle depart="0.1" departLane="1" departPos="258.08091340306345" departSpeed="10.8882" id="314" type="passenger">
		<route edges="1414 1431 1421 1441 1419 1444 1426 1436 1422"/>
	</vehicle>
	<vehicle depart="0.1" departLane="1" departPos="0" departSpeed="10.6533" id="315" type="passenger">
		<route edges="1419 1444 1426 1436 1422"/>
	</vehicle>
	<vehicle depart="0.1" departLane="0" departPos="84.27502860469659" departSpeed="0.0437" id="316" type="passenger">
		<route edges="1423 1434 1422"/>
	</vehicle>
	<vehicle depart="0.1" departLane="1" departPos="189.55963433998113" departSpeed="13.6403" id="317" type="passenger">
		<route edges="1414 1431 1441 1419 1444 1426 1436 1422"/>
	</vehicle>
	<vehicle depart="0.1" departLane="0" departPos="23.237699162071245" departSpeed="0.0" id="318" type="passenger">
		<route edges="1413 1439 1417"/>
	</vehicle>
	<vehicle depart="0.1" departLane="0" departPos="58.938762329929396" departSpeed="0.2401" id="319" type="passenger">
		<route edges="1423 1434 1422"/>
	</vehicle>
	<vehicle depart="0.1" departLane="1" departPos="164.06913386111893" departSpeed="14.6216" id="320" type="passenger">
		<route edges="1414 1431 1421 1441 1419 1444 1426 1436 1422"/>
	</vehicle>
	<vehicle depart="0.1" departLane="0" departPos="0" departSpeed="0.2292" id="321" type="passenger">
		<route edges="1413 1439 1417"/>
	</vehicle>
	<vehicle depart="0.1" departLane="0" departPos="50.6788357361811" departSpeed="0.7507" id="322" type="passenger">
		<route edges="1423 1434 1422"/>
	</vehicle>
	<vehicle depart="0.1" departLane="0" departPos="41.529633167952184" departSpeed="1.5427" id="324" type="passenger">
		<route edges="1423 1434 1422"/>
	</vehicle>
	<vehicle depart="0.1" departLane="0" departPos="89.79843647946795" departSpeed="18.463" id="325" type="passenger">
		<route edges="1414 1431 1421 1441 1419 1444 1426 1435 1428"/>
	</vehicle>
	<vehicle depart="0.1" departLane="0" departPos="0" departSpeed="2.2209" id="326" type="passenger">
		<route edges="1423 1434 1422"/>
	</vehicle>
	<vehicle depart="0.1" departLane="0" departPos="58.63479892091976" departSpeed="14.5384" id="327" type="passenger">
		<route edges="1414 1431 1421 1441 1419 1444 1426 1435 1428"/>
	</vehicle>
	<vehicle depart="0.1" departLane="0" departPos="0" departSpeed="2.6911" id="328" type="passenger">
		<route edges="1423 1434 1422"/>
	</vehicle>
	<vehicle depart="0.1" departLane="0" departPos="0" departSpeed="11.4941" id="329" type="passenger">
		<route edges="1414 1443 1424"/>
	</vehicle>
	<vehicle depart="0.1" departLane="0" departPos="0" departSpeed="0.6755" id="330" type="passenger">
		<route edges="1413 1439 1417"/>
	</vehicle>
	<vehicle depart="0.1" departLane="1" departPos="85.2591898139217" departSpeed="25.2834" id="331" type="passenger">
		<route edges="1414 1431 1441 1419 1444 1426 1436 1422"/>
	</vehicle>
	<vehicle depart="0.1" departLane="0" departPos="0" departSpeed="2.7222" id="332" type="passenger">
		<route edges="1423 1434 1422"/>
	</vehicle>
	<vehicle depart="0.1" departLane="1" departPos="60.1987574383376" departSpeed="21.5031" id="333" type="passenger">
		<route edges="1414 1431 1441 1419 1444 1426 1436 1422"/>
	</vehicle>
	<vehicle depart="0.1" departLane="1" departPos="0" departSpeed="7.2564" id="334" type="passenger">
		<route edges="1414 1431 1421 1441 1419 1444 1426 1436 1422"/>
	</vehicle>
	<vehicle depart="0.1" departLane="1" departPos="0" departSpeed="4.1641" id="335" type="passenger">
		<route edges="1414 1431 1421 1441 1419 1444 1426 1436 1422"/>
	</vehicle>
	<vehicle depart="0.1" departLane="0" departPos="0" departSpeed="0.9342" id="336" type="passenger">
		<route edges="1423 1434 1422"/>
	</vehicle>
</routes>
