<routes>
	<vehicle depart="0.1" departLane="1" departPos="20.997212677129852" departSpeed="0.0" id="39" type="bicycle">
		<route edges="8693 8940"/>
	</vehicle>
	<vehicle depart="0.1" departLane="1" departPos="12.568593147385915" departSpeed="3.0203897" id="336" type="bicycle">
		<route edges="8693 8940"/>
	</vehicle>
	<vehicle depart="0.1" departLane="0" departPos="6.606446671027795" departSpeed="0.15229332" id="313" type="passenger">
		<route edges=":40_5 8945"/>
	</vehicle>
	<vehicle depart="0.1" departLane="1" departPos="20.9601516709546" departSpeed="0.0" id="315" type="passenger">
		<route edges="8693 8940"/>
	</vehicle>
	<vehicle depart="0.1" departLane="0" departPos="2.5" departSpeed="0.59948317" id="318" type="passenger">
		<route edges=":40_10 8940 8937"/>
	</vehicle>
	<vehicle depart="0.1" departLane="0" departPos="8.892358337353317" departSpeed="0.45096388" id="342" type="passenger">
		<route edges=":40_8 8838"/>
	</vehicle>
	<vehicle depart="0.1" departLane="0" departPos="28.272743012134395" departSpeed="11.734122" id="351" type="passenger">
		<route edges="8943 8940 8937"/>
	</vehicle>
	<vehicle depart="0.1" departLane="1" departPos="2.5" departSpeed="12.07443" id="356" type="passenger">
		<route edges="8943 8838"/>
	</vehicle>
	<vehicle depart="0.1" departLane="0" departPos="29.0168105016667" departSpeed="13.90256" id="364" type="passenger">
		<route edges=":40_1 8945 10035 8808"/>
	</vehicle>
</routes>
