<!-- generated on Tue Feb  9 22:08:20 2021 by Eclipse SUMO netconvert Version 1.8.0
<configuration xmlns:xsi="http://www.w3.org/2001/XMLSchema-instance" xsi:noNamespaceSchemaLocation="http://sumo.dlr.de/xsd/netconvertConfiguration.xsd">

    <input>
        <node-files value="./converted_scenarios/scenario-factory/DEU_Muehlhausen-12_4_I-1-1/DEU_Muehlhausen-12_4_I-1-1.nod.xml"/>
        <edge-files value="./converted_scenarios/scenario-factory/DEU_Muehlhausen-12_4_I-1-1/DEU_Muehlhausen-12_4_I-1-1.edg.xml"/>
        <connection-files value="./converted_scenarios/scenario-factory/DEU_Muehlhausen-12_4_I-1-1/DEU_Muehlhausen-12_4_I-1-1.con.xml"/>
        <tllogic-files value="./converted_scenarios/scenario-factory/DEU_Muehlhausen-12_4_I-1-1/DEU_Muehlhausen-12_4_I-1-1.tll.xml"/>
        <type-files value="/home/zen/commonroad-interactive-benchmarks/install/commonroad-map-tool/crmapconverter/sumo_map/templates/DEU.typ.xml"/>
    </input>

    <output>
        <output-file value="./converted_scenarios/scenario-factory/DEU_Muehlhausen-12_4_I-1-1/DEU_Muehlhausen-12_4_I-1-1.net.xml"/>
    </output>

    <processing>
        <geometry.remove.keep-edges.explicit value="true"/>
        <geometry.avoid-overlap value="true"/>
        <offset.disable-normalization value="true"/>
    </processing>

    <junctions>
        <no-turnarounds value="true"/>
        <junctions.internal-link-detail value="20"/>
    </junctions>

    <report>
        <aggregate-warnings value="5"/>
    </report>

    <random_number>
        <seed value="1234"/>
    </random_number>

</configuration>
--><net xmlns:xsi="http://www.w3.org/2001/XMLSchema-instance" version="1.6" junctionCornerDetail="5" junctionLinkDetail="20" limitTurnSpeed="5.50" xsi:noNamespaceSchemaLocation="http://sumo.dlr.de/xsd/net_file.xsd">

    <location netOffset="0.00,0.00" convBoundary="486.60,-830.10,696.50,-605.36" origBoundary="486.60,-830.10,696.50,-605.36" projParameter="!"/>

    <type id="highway.bridleway" priority="1" speed="2.78" allow="pedestrian" oneway="1" width="2.00"/>
    <type id="highway.bus_guideway" priority="1" speed="27.78" allow="bus" oneway="1"/>
    <type id="highway.cycleway" priority="1" speed="8.33" allow="bicycle" oneway="0" width="1.00"/>
    <type id="highway.footway" priority="1" speed="2.78" allow="pedestrian" oneway="1" width="2.00"/>
    <type id="highway.ford" priority="1" speed="2.78" allow="army" oneway="0"/>
    <type id="highway.living_street" priority="2" speed="2.78" disallow="tram rail_urban rail rail_electric rail_fast ship" oneway="0"/>
    <type id="highway.motorway" priority="14" speed="39.44" allow="private emergency authority army vip passenger hov taxi bus coach delivery truck trailer motorcycle evehicle custom1 custom2" oneway="1"/>
    <type id="highway.motorway_link" priority="9" speed="22.22" allow="private emergency authority army vip passenger hov taxi bus coach delivery truck trailer motorcycle evehicle custom1 custom2" oneway="1"/>
    <type id="highway.path" priority="1" speed="2.78" allow="pedestrian bicycle" oneway="0" width="2.00"/>
    <type id="highway.pedestrian" priority="1" speed="2.78" allow="pedestrian" oneway="1" width="2.00"/>
    <type id="highway.primary" priority="12" speed="27.78" disallow="pedestrian tram rail_urban rail rail_electric rail_fast ship" oneway="0"/>
    <type id="highway.primary_link" priority="7" speed="22.22" disallow="pedestrian tram rail_urban rail rail_electric rail_fast ship" oneway="0"/>
    <type id="highway.raceway" priority="15" speed="83.33" allow="vip" oneway="0"/>
    <type id="highway.residential" priority="3" speed="13.89" disallow="pedestrian tram rail_urban rail rail_electric rail_fast ship" oneway="0"/>
    <type id="highway.secondary" priority="11" speed="27.78" disallow="pedestrian tram rail_urban rail rail_electric rail_fast ship" oneway="0"/>
    <type id="highway.secondary_link" priority="6" speed="22.22" disallow="pedestrian tram rail_urban rail rail_electric rail_fast ship" oneway="0"/>
    <type id="highway.service" priority="1" speed="5.56" allow="pedestrian delivery bicycle" oneway="0"/>
    <type id="highway.stairs" priority="1" speed="1.39" allow="pedestrian" oneway="1" width="2.00"/>
    <type id="highway.step" priority="1" speed="1.39" allow="pedestrian" oneway="1" width="2.00"/>
    <type id="highway.steps" priority="1" speed="1.39" allow="pedestrian" oneway="1" width="2.00"/>
    <type id="highway.tertiary" priority="10" speed="22.22" disallow="pedestrian tram rail_urban rail rail_electric rail_fast ship" oneway="0"/>
    <type id="highway.tertiary_link" priority="5" speed="22.22" disallow="pedestrian tram rail_urban rail rail_electric rail_fast ship" oneway="0"/>
    <type id="highway.track" priority="1" speed="5.56" allow="pedestrian motorcycle moped bicycle" oneway="0"/>
    <type id="highway.trunk" priority="13" speed="27.78" disallow="pedestrian bicycle tram rail_urban rail rail_electric rail_fast ship" oneway="0"/>
    <type id="highway.trunk_link" priority="8" speed="22.22" disallow="pedestrian bicycle tram rail_urban rail rail_electric rail_fast ship" oneway="0"/>
    <type id="highway.unclassified" priority="4" speed="13.89" disallow="pedestrian tram rail_urban rail rail_electric rail_fast ship" oneway="0"/>
    <type id="highway.unsurfaced" priority="1" speed="8.33" disallow="tram rail_urban rail rail_electric rail_fast ship" oneway="0"/>
    <type id="railway.highspeed" priority="21" speed="69.44" allow="rail_fast" oneway="1"/>
    <type id="railway.light_rail" priority="19" speed="27.78" allow="rail_urban" oneway="1"/>
    <type id="railway.preserved" priority="16" speed="27.78" allow="rail" oneway="1"/>
    <type id="railway.rail" priority="20" speed="44.44" allow="rail" oneway="1"/>
    <type id="railway.subway" priority="18" speed="27.78" allow="rail_urban" oneway="1"/>
    <type id="railway.tram" priority="17" speed="13.89" allow="tram" oneway="1"/>

    <edge id=":15_0" function="internal">
        <lane id=":15_0_0" index="0" disallow="pedestrian tram rail_urban rail rail_electric rail_fast ship" speed="36.11" length="0.26" width="3.50" shape="666.77,-703.57 667.03,-703.59"/>
    </edge>
    <edge id=":16_0" function="internal">
        <lane id=":16_0_0" index="0" disallow="pedestrian tram rail_urban rail rail_electric rail_fast ship" speed="36.11" length="2.99" width="3.50" shape="581.31,-674.54 578.57,-673.34"/>
    </edge>
    <edge id=":30_0" function="internal">
        <lane id=":30_0_0" index="0" disallow="pedestrian tram rail_urban rail rail_electric rail_fast ship" speed="36.11" length="2.97" width="3.50" shape="554.08,-664.10 551.35,-662.94"/>
    </edge>
    <edge id=":40_0" function="internal">
        <lane id=":40_0_0" index="0" disallow="pedestrian tram rail_urban rail rail_electric rail_fast ship" speed="11.84" length="29.22" width="3.50" shape="646.89,-694.15 644.09,-693.57 641.37,-692.65 639.32,-691.64 637.43,-690.34 635.76,-688.77 634.37,-686.95 633.28,-684.93 632.48,-682.78 631.84,-679.99 631.55,-677.14 631.55,-673.70 631.58,-673.13"/>
    </edge>
    <edge id=":40_1" function="internal">
        <lane id=":40_1_0" index="0" disallow="pedestrian tram rail_urban rail rail_electric rail_fast ship" speed="36.11" length="43.73" width="3.50" shape="646.89,-694.15 637.38,-692.49 627.93,-690.44 618.08,-687.91 607.84,-684.86 604.46,-683.77"/>
    </edge>
    <edge id=":40_2" function="internal">
        <lane id=":40_2_0" index="0" disallow="pedestrian tram rail_urban rail rail_electric rail_fast ship" speed="16.61" length="40.07" width="3.50" shape="646.36,-697.61 642.95,-697.24 639.52,-697.18 636.10,-697.47 632.73,-698.12 629.45,-699.15 626.31,-700.52 623.33,-702.22 620.53,-704.21 617.91,-706.44 615.49,-708.87 612.52,-712.36 611.82,-713.29"/>
    </edge>
    <edge id=":40_3" function="internal">
        <lane id=":40_3_0" index="0" disallow="pedestrian tram rail_urban rail rail_electric rail_fast ship" speed="15.82" length="36.31" width="3.50" shape="614.62,-715.38 615.26,-714.55 618.00,-711.31 620.21,-709.09 622.58,-707.06 625.11,-705.25 627.79,-703.71 630.61,-702.47 633.55,-701.54 636.57,-700.95 639.64,-700.68 642.74,-700.73 645.86,-701.07"/>
    </edge>
    <edge id=":40_4" function="internal">
        <lane id=":40_4_0" index="0" disallow="pedestrian tram rail_urban rail rail_electric rail_fast ship" speed="26.86" length="46.18" width="3.50" shape="614.62,-715.38 618.34,-710.10 621.17,-705.54 623.75,-700.83 626.02,-695.96 627.95,-690.96 629.52,-685.82 630.48,-681.64 631.17,-677.40 631.58,-673.13"/>
    </edge>
    <edge id=":40_5" function="internal">
        <lane id=":40_5_0" index="0" disallow="pedestrian tram rail_urban rail rail_electric rail_fast ship" speed="12.16" length="41.91" width="3.50" shape="614.62,-715.38 616.84,-712.18 618.75,-708.82 620.02,-705.86 620.75,-703.38 621.06,-701.48 621.13,-699.54 620.92,-697.62 620.41,-695.76 619.62,-694.00 618.56,-692.38 617.30,-690.91 615.37,-689.20 613.25,-687.73 610.43,-686.17 606.88,-684.63 604.46,-683.77"/>
    </edge>
    <edge id=":40_6" function="internal">
        <lane id=":40_6_0" index="0" disallow="pedestrian tram rail_urban rail rail_electric rail_fast ship" speed="10.57" length="31.32" width="3.50" shape="602.14,-690.37 605.83,-691.76 608.69,-693.14 610.86,-694.49 612.82,-696.10 614.09,-697.53 615.10,-699.15 615.76,-700.94 616.02,-702.82 615.90,-704.73 615.47,-706.59 614.52,-708.95 613.28,-711.17 611.82,-713.29"/>
    </edge>
    <edge id=":40_7" function="internal">
        <lane id=":40_7_0" index="0" disallow="pedestrian tram rail_urban rail rail_electric rail_fast ship" speed="36.11" length="45.06" width="3.50" shape="602.14,-690.37 612.37,-693.57 622.60,-696.35 632.43,-698.62 641.85,-700.42 645.86,-701.07"/>
    </edge>
    <edge id=":40_8" function="internal">
        <lane id=":40_8_0" index="0" disallow="pedestrian tram rail_urban rail rail_electric rail_fast ship" speed="11.62" length="38.44" width="3.50" shape="603.30,-687.08 605.93,-687.88 609.85,-688.83 612.57,-689.27 615.33,-689.48 618.12,-689.39 619.57,-689.19 620.99,-688.88 622.40,-688.43 623.77,-687.82 625.07,-687.06 626.27,-686.14 627.35,-685.08 628.29,-683.91 629.09,-682.65 629.75,-681.34 630.29,-680.00 630.72,-678.61 631.29,-675.89 631.58,-673.13"/>
    </edge>
    <edge id=":40_9" function="internal">
        <lane id=":40_9_0" index="0" disallow="pedestrian tram rail_urban rail rail_electric rail_fast ship" speed="10.58" length="31.65" width="3.50" shape="628.07,-673.04 627.84,-675.25 627.34,-677.55 626.98,-678.67 626.53,-679.76 625.98,-680.80 625.32,-681.78 624.56,-682.68 623.69,-683.48 622.74,-684.16 621.70,-684.73 620.61,-685.17 619.48,-685.50 618.33,-685.73 617.16,-685.86 614.80,-685.90 612.45,-685.69 610.13,-685.30 606.70,-684.46 604.46,-683.77"/>
    </edge>
    <edge id=":40_10" function="internal">
        <lane id=":40_10_0" index="0" disallow="pedestrian tram rail_urban rail rail_electric rail_fast ship" speed="26.18" length="44.02" width="3.50" shape="628.07,-673.04 627.70,-676.97 627.04,-681.00 626.12,-684.98 624.62,-689.88 622.77,-694.66 620.59,-699.31 618.12,-703.83 615.40,-708.20 611.82,-713.29"/>
    </edge>
    <edge id=":40_11" function="internal">
        <lane id=":40_11_0" index="0" disallow="pedestrian tram rail_urban rail rail_electric rail_fast ship" speed="13.31" length="37.19" width="3.50" shape="628.08,-673.04 627.98,-677.43 628.21,-681.38 628.73,-684.73 629.44,-687.47 630.44,-690.11 631.77,-692.60 633.10,-694.43 634.65,-696.07 636.41,-697.49 638.33,-698.68 640.91,-699.83 643.62,-700.64 645.86,-701.07"/>
    </edge>
    <edge id=":41_0" function="internal">
        <lane id=":41_0_0" index="0" disallow="pedestrian tram rail_urban rail rail_electric rail_fast ship" speed="36.11" length="34.87" width="3.50" shape="574.02,-768.13 572.30,-770.87 569.16,-776.36 566.31,-782.03 563.77,-787.83 561.53,-793.76 559.60,-799.75"/>
    </edge>
    <edge id=":41_1" function="internal">
        <lane id=":41_1_0" index="0" disallow="pedestrian tram rail_urban rail rail_electric rail_fast ship" speed="10.59" length="35.01" width="3.50" shape="574.02,-768.12 572.50,-770.82 571.89,-772.21 571.43,-773.66 571.15,-775.15 571.11,-776.67 571.36,-778.17 571.93,-779.58 572.76,-780.84 573.81,-781.94 575.01,-782.87 576.31,-783.66 577.68,-784.33 580.52,-785.40 583.46,-786.19 587.94,-787.02 592.47,-787.55"/>
    </edge>
    <edge id=":41_2" function="internal">
        <lane id=":41_2_0" index="0" disallow="pedestrian tram rail_urban rail rail_electric rail_fast ship" speed="9.42" length="27.39" width="3.50" shape="592.79,-784.07 588.86,-783.61 584.99,-782.92 582.51,-782.29 580.11,-781.45 579.02,-780.95 577.97,-780.38 577.03,-779.72 576.22,-778.99 575.59,-778.19 575.15,-777.33 574.91,-776.41 574.86,-775.42 574.99,-774.37 575.30,-773.30 575.72,-772.24 576.95,-770.03"/>
    </edge>
    <edge id=":41_3" function="internal">
        <lane id=":41_3_0" index="0" disallow="pedestrian tram rail_urban rail rail_electric rail_fast ship" speed="14.26" length="40.16" width="3.50" shape="592.79,-784.07 590.43,-783.89 585.75,-783.77 582.19,-783.92 578.63,-784.35 575.11,-785.11 572.77,-785.85 570.50,-786.81 568.33,-788.01 566.30,-789.46 564.45,-791.16 562.84,-793.09 561.49,-795.21 560.41,-797.45 559.60,-799.75"/>
    </edge>
    <edge id=":41_4" function="internal">
        <lane id=":41_4_0" index="0" disallow="pedestrian tram rail_urban rail rail_electric rail_fast ship" speed="13.40" length="35.36" width="3.50" shape="562.95,-800.78 563.66,-798.76 564.60,-796.83 565.77,-795.04 567.17,-793.42 568.78,-792.00 570.55,-790.79 572.45,-789.80 574.44,-789.00 576.49,-788.38 579.64,-787.74 582.83,-787.39 586.05,-787.26 590.33,-787.39 592.47,-787.55"/>
    </edge>
    <edge id=":41_5" function="internal">
        <lane id=":41_5_0" index="0" disallow="pedestrian tram rail_urban rail rail_electric rail_fast ship" speed="36.11" length="33.90" width="3.50" shape="562.95,-800.78 564.83,-794.92 567.01,-789.16 569.48,-783.52 572.24,-778.02 575.30,-772.68 576.95,-770.03"/>
    </edge>
    <edge id=":42_0" function="internal">
        <lane id=":42_0_0" index="0" disallow="pedestrian tram rail_urban rail rail_electric rail_fast ship" speed="14.45" length="33.73" width="3.50" shape="591.82,-741.67 590.53,-743.33 589.07,-744.86 587.45,-746.22 585.70,-747.39 583.84,-748.37 581.88,-749.16 579.86,-749.77 576.75,-750.36 573.60,-750.61 570.43,-750.59 567.28,-750.34 563.10,-749.72 561.05,-749.31"/>
    </edge>
    <edge id=":42_1" function="internal">
        <lane id=":42_1_0" index="0" disallow="pedestrian tram rail_urban rail rail_electric rail_fast ship" speed="36.11" length="31.69" width="3.50" shape="591.82,-741.67 581.67,-756.49 574.13,-767.96"/>
    </edge>
    <edge id=":42_2" function="internal">
        <lane id=":42_2_0" index="0" disallow="pedestrian tram rail_urban rail rail_electric rail_fast ship" speed="36.11" length="31.54" width="3.50" shape="577.07,-769.86 584.58,-758.43 594.67,-743.69"/>
    </edge>
    <edge id=":42_3" function="internal">
        <lane id=":42_3_0" index="0" disallow="pedestrian tram rail_urban rail rail_electric rail_fast ship" speed="10.53" length="32.25" width="3.50" shape="577.07,-769.86 577.80,-768.62 578.46,-767.31 578.99,-765.90 579.36,-764.40 579.51,-762.81 579.38,-761.18 578.94,-759.59 578.22,-758.14 577.30,-756.85 576.25,-755.75 575.10,-754.79 573.88,-753.95 571.42,-752.61 568.85,-751.53 564.97,-750.28 561.05,-749.31"/>
    </edge>
    <edge id=":42_4" function="internal">
        <lane id=":42_4_0" index="0" disallow="pedestrian tram rail_urban rail rail_electric rail_fast ship" speed="9.39" length="25.27" width="3.50" shape="560.31,-752.73 563.65,-753.55 566.94,-754.57 569.08,-755.43 571.13,-756.46 572.11,-757.07 573.03,-757.75 573.88,-758.52 574.63,-759.40 575.23,-760.37 575.65,-761.44 575.84,-762.57 575.81,-763.72 575.59,-764.85 575.21,-765.93 574.71,-766.97 574.13,-767.96"/>
    </edge>
    <edge id=":42_5" function="internal">
        <lane id=":42_5_0" index="0" disallow="pedestrian tram rail_urban rail rail_electric rail_fast ship" speed="15.28" length="37.83" width="3.50" shape="560.31,-752.73 562.56,-753.18 567.10,-753.85 570.58,-754.10 574.08,-754.10 577.59,-753.78 581.07,-753.08 583.37,-752.36 585.59,-751.43 587.71,-750.28 589.71,-748.91 591.55,-747.34 593.21,-745.58 594.67,-743.69"/>
    </edge>
    <edge id=":43_0" function="internal">
        <lane id=":43_0_0" index="0" disallow="pedestrian tram rail_urban rail rail_electric rail_fast ship" speed="36.11" length="8.05" width="3.50" shape="560.68,-671.52 564.40,-673.57 567.73,-675.40"/>
        <lane id=":43_0_1" index="1" disallow="pedestrian tram rail_urban rail rail_electric rail_fast ship" speed="36.11" length="8.08" width="3.50" shape="561.13,-670.50 566.02,-672.24 568.73,-673.23"/>
    </edge>
    <edge id=":44_0" function="internal">
        <lane id=":44_0_0" index="0" disallow="pedestrian tram rail_urban rail rail_electric rail_fast ship" speed="36.11" length="6.01" width="3.50" shape="669.06,-700.25 663.08,-699.63"/>
    </edge>
    <edge id=":44_1" function="internal">
        <lane id=":44_1_0" index="0" disallow="pedestrian tram rail_urban rail rail_electric rail_fast ship" speed="36.11" length="5.91" width="3.50" shape="669.34,-696.86 663.47,-696.16"/>
    </edge>

    <edge id="10035" from="16" to="30" priority="3" type="highway.residential" spreadType="center" length="26.18">
        <lane id="10035_0" index="0" disallow="pedestrian tram rail_urban rail rail_electric rail_fast ship" speed="36.11" length="26.18" width="3.50" customShape="1" shape="578.57,-673.34 575.17,-671.87 567.34,-669.00 557.52,-665.52 554.08,-664.10"/>
    </edge>
    <edge id="8691" from="40" to="15" priority="3" type="highway.residential" spreadType="center" length="21.06" shape="622.74,-695.15 666.90,-703.58">
        <lane id="8691_0" index="0" disallow="pedestrian tram rail_urban rail rail_electric rail_fast ship" speed="36.11" length="21.06" width="3.50" customShape="1" shape="645.86,-701.07 650.45,-701.74 666.77,-703.57"/>
    </edge>
    <edge id="8693" from="44" to="40" priority="3" type="highway.residential" spreadType="center" length="16.73" shape="667.48,-698.37 623.52,-689.96">
        <lane id="8693_0" index="0" disallow="pedestrian tram rail_urban rail rail_electric rail_fast ship" speed="36.11" length="16.73" width="3.50" customShape="1" shape="663.47,-696.16 651.45,-694.81 646.86,-694.15"/>
        <lane id="8693_1" index="1" disallow="pedestrian tram rail_urban rail rail_electric rail_fast ship" speed="36.11" length="16.84" width="3.50" customShape="1" shape="663.08,-699.63 650.92,-698.27 646.36,-697.61"/>
    </edge>
    <edge id="8741" from="27" to="42" priority="3" type="highway.residential" spreadType="center" length="70.01" shape="491.88,-737.96 576.18,-755.92">
        <lane id="8741_0" index="0" disallow="pedestrian tram rail_urban rail rail_electric rail_fast ship" speed="36.11" length="70.01" width="3.50" customShape="1" shape="491.88,-737.96 560.31,-752.73"/>
    </edge>
    <edge id="8742" from="42" to="13" priority="3" type="highway.residential" spreadType="center" length="70.00" shape="576.91,-752.50 492.63,-734.53">
        <lane id="8742_0" index="0" disallow="pedestrian tram rail_urban rail rail_electric rail_fast ship" speed="36.11" length="70.00" width="3.50" customShape="1" shape="561.05,-749.31 492.63,-734.53"/>
    </edge>
    <edge id="8791" from="35" to="41" priority="3" type="highway.residential" spreadType="center" length="30.61" shape="554.33,-830.10 578.03,-785.83">
        <lane id="8791_0" index="0" disallow="pedestrian tram rail_urban rail rail_electric rail_fast ship" speed="36.11" length="30.61" width="3.50" customShape="1" shape="554.33,-830.10 558.64,-815.44 562.96,-800.73"/>
    </edge>
    <edge id="8792" from="41" to="23" priority="3" type="highway.residential" spreadType="center" length="30.60" shape="574.94,-784.18 550.97,-829.11">
        <lane id="8792_0" index="0" disallow="pedestrian tram rail_urban rail rail_electric rail_fast ship" speed="36.11" length="30.60" width="3.50" customShape="1" shape="559.60,-799.75 555.28,-814.45 550.97,-829.11"/>
    </edge>
    <edge id="8798" from="41" to="26" priority="3" type="highway.residential" spreadType="center" length="70.00" shape="576.29,-786.80 662.23,-793.35">
        <lane id="8798_0" index="0" disallow="pedestrian tram rail_urban rail rail_electric rail_fast ship" speed="36.11" length="70.00" width="3.50" customShape="1" shape="592.47,-787.55 625.06,-790.48 638.11,-791.58 662.23,-793.35"/>
    </edge>
    <edge id="8799" from="28" to="41" priority="3" type="highway.residential" spreadType="center" length="70.01" shape="662.55,-789.87 576.56,-783.31">
        <lane id="8799_0" index="0" disallow="pedestrian tram rail_urban rail rail_electric rail_fast ship" speed="36.11" length="70.01" width="3.50" customShape="1" shape="662.55,-789.87 638.29,-788.08 625.29,-786.99 592.78,-784.07"/>
    </edge>
    <edge id="8807" from="39" to="43" priority="3" type="highway.residential" spreadType="center" length="80.50">
        <lane id="8807_0" index="0" disallow="pedestrian tram rail_urban rail rail_electric rail_fast ship" speed="36.11" length="80.50" width="3.50" customShape="1" shape="486.60,-640.22 490.26,-641.32 500.24,-644.64 507.75,-647.47 515.53,-650.94 560.92,-670.99"/>
    </edge>
    <edge id="8808" from="30" to="34" priority="3" type="highway.residential" spreadType="center" length="68.51">
        <lane id="8808_0" index="0" disallow="pedestrian tram rail_urban rail rail_electric rail_fast ship" speed="36.11" length="68.51" width="3.50" customShape="1" shape="551.35,-662.94 516.87,-647.71 509.03,-644.21 501.43,-641.35 491.37,-638.00 488.01,-636.99"/>
    </edge>
    <edge id="8837" from="36" to="40" priority="3" type="highway.residential" spreadType="center" length="70.13" shape="613.42,-605.36 621.39,-693.63">
        <lane id="8837_0" index="0" disallow="pedestrian tram rail_urban rail rail_electric rail_fast ship" speed="36.11" length="70.13" width="3.50" customShape="1" shape="613.42,-605.36 613.36,-610.33 613.35,-614.36 613.62,-616.86 614.18,-619.32 616.77,-626.96 622.38,-642.09 625.58,-650.04 626.90,-653.85 627.51,-656.30 627.73,-658.30 628.19,-668.37 628.08,-673.04"/>
    </edge>
    <edge id="8838" from="40" to="17" priority="3" type="highway.residential" spreadType="center" length="70.00" shape="624.88,-693.32 616.92,-605.58">
        <lane id="8838_0" index="0" disallow="pedestrian tram rail_urban rail rail_electric rail_fast ship" speed="36.11" length="70.00" width="3.50" customShape="1" shape="631.58,-673.13 631.69,-668.45 631.23,-658.27 631.02,-656.10 630.41,-653.43 629.10,-649.46 625.88,-641.48 620.27,-626.36 617.68,-618.80 617.12,-616.55 616.84,-614.26 616.86,-610.32 616.92,-605.58"/>
    </edge>
    <edge id="8937" from="42" to="41" priority="3" type="highway.residential" spreadType="center" length="0.26" shape="574.76,-754.10 574.71,-785.06">
        <lane id="8937_0" index="0" disallow="pedestrian tram rail_urban rail rail_electric rail_fast ship" speed="36.11" length="0.26" width="3.50" customShape="1" shape="574.13,-767.96 574.06,-768.07 573.99,-768.18"/>
    </edge>
    <edge id="8938" from="41" to="42" priority="3" type="highway.residential" spreadType="center" length="0.23" shape="578.21,-785.06 578.26,-754.11">
        <lane id="8938_0" index="0" disallow="pedestrian tram rail_urban rail rail_electric rail_fast ship" speed="36.11" length="0.23" width="3.50" customShape="1" shape="576.95,-770.03 577.08,-769.84"/>
    </edge>
    <edge id="8940" from="40" to="42" priority="3" type="highway.residential" spreadType="center" length="34.73" shape="621.74,-692.38 575.10,-753.17">
        <lane id="8940_0" index="0" disallow="pedestrian tram rail_urban rail rail_electric rail_fast ship" speed="36.11" length="34.73" width="3.50" customShape="1" shape="611.82,-713.29 610.61,-714.91 591.81,-741.68"/>
    </edge>
    <edge id="8941" from="42" to="40" priority="3" type="highway.residential" spreadType="center" length="34.66" shape="577.87,-755.30 624.52,-694.51">
        <lane id="8941_0" index="0" disallow="pedestrian tram rail_urban rail rail_electric rail_fast ship" speed="36.11" length="34.66" width="3.50" customShape="1" shape="594.67,-743.69 613.43,-716.98 614.63,-715.36"/>
    </edge>
    <edge id="8943" from="43" to="40" priority="3" type="highway.residential" spreadType="center" length="37.32" shape="564.53,-672.72 621.96,-696.74">
        <lane id="8943_0" index="0" disallow="pedestrian tram rail_urban rail rail_electric rail_fast ship" speed="36.11" length="37.57" width="3.50" customShape="1" shape="567.46,-675.99 585.90,-684.28 593.53,-687.34 602.14,-690.37"/>
        <lane id="8943_1" index="1" disallow="pedestrian tram rail_urban rail rail_electric rail_fast ship" speed="36.11" length="37.32" width="3.50" customShape="1" shape="568.92,-672.81 587.23,-681.04 594.72,-684.05 603.37,-687.10"/>
    </edge>
    <edge id="8945" from="40" to="16" priority="3" type="highway.residential" spreadType="center" length="24.94" shape="623.85,-691.85 579.94,-673.93">
        <lane id="8945_0" index="0" disallow="pedestrian tram rail_urban rail rail_electric rail_fast ship" speed="36.11" length="24.94" width="3.50" customShape="1" shape="604.46,-683.77 595.99,-680.79 588.60,-677.82 581.31,-674.54"/>
    </edge>
    <edge id="9791" from="45" to="44" priority="3" type="highway.residential" spreadType="center" length="27.50">
        <lane id="9791_0" index="0" disallow="pedestrian tram rail_urban rail rail_electric rail_fast ship" speed="36.11" length="27.50" width="3.50" customShape="1" shape="696.50,-701.89 690.17,-701.28 673.45,-700.62 669.06,-700.25"/>
    </edge>
    <edge id="9792" from="45" to="44" priority="3" type="highway.residential" spreadType="center" length="27.63">
        <lane id="9792_0" index="0" disallow="pedestrian tram rail_urban rail rail_electric rail_fast ship" speed="36.11" length="27.63" width="3.50" customShape="1" shape="696.50,-701.89 690.03,-700.85 674.19,-697.60 669.34,-696.86"/>
    </edge>
    <edge id="9865" from="15" to="32" priority="3" type="highway.residential" spreadType="center" length="29.10">
        <lane id="9865_0" index="0" disallow="pedestrian tram rail_urban rail rail_electric rail_fast ship" speed="36.11" length="29.10" width="3.50" customShape="1" shape="667.03,-703.59 673.14,-704.10 689.84,-704.77 696.07,-705.36"/>
    </edge>

    <junction id="13" type="dead_end" x="492.63" y="-734.53" incLanes="8742_0" intLanes="" shape="493.00,-732.82 492.26,-736.24" rightOfWay="edgePriority"/>
    <junction id="15" type="priority" x="666.90" y="-703.58" incLanes="8691_0" intLanes=":15_0_0" shape="667.17,-701.85 666.88,-705.34 666.57,-705.31 666.96,-701.83" rightOfWay="edgePriority">
        <request index="0" response="0" foes="0" cont="0"/>
    </junction>
    <junction id="16" type="priority" x="579.94" y="-673.93" incLanes="8945_0" intLanes=":16_0_0" shape="582.02,-672.94 580.59,-676.13 577.88,-674.94 579.26,-671.73" rightOfWay="edgePriority">
        <request index="0" response="0" foes="0" cont="0"/>
    </junction>
    <junction id="17" type="dead_end" x="616.92" y="-605.58" incLanes="8838_0" intLanes="" shape="618.67,-605.60 615.17,-605.55" rightOfWay="edgePriority"/>
    <junction id="23" type="dead_end" x="550.97" y="-829.11" incLanes="8792_0" intLanes="" shape="549.29,-828.62 552.65,-829.60" rightOfWay="edgePriority"/>
    <junction id="26" type="dead_end" x="662.23" y="-793.35" incLanes="8798_0" intLanes="" shape="662.10,-795.10 662.36,-791.61" rightOfWay="edgePriority"/>
    <junction id="27" type="dead_end" x="491.88" y="-737.96" incLanes="" intLanes="" shape="492.25,-736.25 491.51,-739.67" rightOfWay="edgePriority"/>
    <junction id="28" type="dead_end" x="662.55" y="-789.87" incLanes="" intLanes="" shape="662.42,-791.62 662.68,-788.13" rightOfWay="edgePriority"/>
    <junction id="30" type="priority" x="552.71" y="-663.54" incLanes="10035_0" intLanes=":30_0_0" shape="554.74,-662.48 553.42,-665.72 550.65,-664.54 552.06,-661.34" rightOfWay="edgePriority">
        <request index="0" response="0" foes="0" cont="0"/>
    </junction>
    <junction id="32" type="dead_end" x="696.07" y="-705.36" incLanes="9865_0" intLanes="" shape="695.90,-707.10 696.24,-703.62" rightOfWay="edgePriority"/>
    <junction id="34" type="dead_end" x="488.01" y="-636.99" incLanes="8808_0" intLanes="" shape="488.51,-635.31 487.50,-638.66" rightOfWay="edgePriority"/>
    <junction id="35" type="dead_end" x="554.33" y="-830.10" incLanes="" intLanes="" shape="552.65,-829.60 556.01,-830.59" rightOfWay="edgePriority"/>
    <junction id="36" type="dead_end" x="613.42" y="-605.36" incLanes="" intLanes="" shape="615.17,-605.38 611.67,-605.33" rightOfWay="edgePriority"/>
    <junction id="39" type="dead_end" x="486.60" y="-640.22" incLanes="" intLanes="" shape="487.10,-638.54 486.09,-641.89" rightOfWay="edgePriority"/>
    <junction id="40" type="priority" x="623.13" y="-693.44" incLanes="8693_0 8693_1 8941_0 8943_0 8943_1 8837_0" intLanes=":40_0_0 :40_1_0 :40_2_0 :40_3_0 :40_4_0 :40_5_0 :40_6_0 :40_7_0 :40_8_0 :40_9_0 :40_10_0 :40_11_0" shape="647.11,-692.41 645.61,-702.80 639.91,-702.47 634.52,-703.18 629.43,-704.93 624.66,-707.72 620.19,-711.55 616.03,-716.42 610.41,-712.24 613.10,-707.61 613.94,-703.53 613.07,-699.97 610.62,-696.89 606.74,-694.25 601.56,-692.02 605.04,-682.12 610.81,-683.82 615.89,-684.51 620.13,-683.99 623.39,-682.03 625.50,-678.44 626.33,-673.00 633.33,-673.17 633.60,-678.48 634.68,-682.95 636.57,-686.57 639.28,-689.36 642.79,-691.31">
        <request index="0" response="000000000000" foes="000100010000" cont="0"/>
        <request index="1" response="000000000000" foes="111100110000" cont="0"/>
        <request index="2" response="000011000000" foes="110011110000" cont="0"/>
        <request index="3" response="000010000000" foes="100010000000" cont="0"/>