<routes>
	<vehicle depart="0.1" departLane="0" departPos="13.859416238577436" departSpeed="0.004049554" id="315" type="bicycle">
		<route edges=":17_6 38215"/>
	</vehicle>
	<vehicle depart="0.1" departLane="0" departPos="20.001212620101448" departSpeed="0.63630157" id="317" type="bicycle">
		<route edges=":17_6 38215"/>
	</vehicle>
	<vehicle depart="0.1" departLane="0" departPos="9.619133279945512" departSpeed="0.97056509" id="320" type="passenger">
		<route edges=":17_7 37699"/>
	</vehicle>
	<vehicle depart="0.1" departLane="0" departPos="2.5" departSpeed="0.63997484" id="325" type="passenger">
		<route edges=":17_7 37699"/>
	</vehicle>
	<vehicle depart="0.1" departLane="0" departPos="19.08135205150817" departSpeed="10.07703" id="327" type="passenger">
		<route edges=":17_1 38030"/>
	</vehicle>
	<vehicle depart="0.1" departLane="0" departPos="63.110678650031865" departSpeed="1.2364701" id="329" type="passenger">
		<route edges="37690 38030"/>
	</vehicle>
	<vehicle depart="0.1" departLane="0" departPos="51.55414851667038" departSpeed="7.535675" id="338" type="passenger">
		<route edges="38214 37691"/>
	</vehicle>
	<vehicle depart="0.1" departLane="0" departPos="72.11644591534812" departSpeed="0.19726366" id="30" type="truck">
		<route edges="38029 37699"/>
	</vehicle>
	<vehicle depart="0.1" departLane="0" departPos="62.281901279333546" departSpeed="0.11069406" id="33" type="truck">
		<route edges="38029 37699"/>
	</vehicle>
	<vehicle depart="0.1" departLane="0" departPos="34.43273310132898" departSpeed="10.058334" id="324" type="truck">
		<route edges=":17_0 37691"/>
	</vehicle>
</routes>
