<routes>
	<vehicle depart="0.1" departLane="0" departPos="33.748686281719436" departSpeed="5.3432073" id="37" type="bicycle">
		<route edges="19835 19838"/>
	</vehicle>
	<vehicle depart="0.1" departLane="0" departPos="13.56907681187991" departSpeed="12.394116" id="310" type="passenger">
		<route edges=":60_4 19730 19834"/>
	</vehicle>
	<vehicle depart="0.1" departLane="0" departPos="28.332560936816936" departSpeed="5.6144264" id="337" type="passenger">
		<route edges="19730 19838"/>
	</vehicle>
	<vehicle depart="0.1" departLane="0" departPos="8.688880760951802" departSpeed="14.348227" id="340" type="passenger">
		<route edges="19835 19729"/>
	</vehicle>
	<vehicle depart="0.1" departLane="0" departPos="11.60407315963957" departSpeed="1.2430272" id="341" type="passenger">
		<route edges=":62_1 19729"/>
	</vehicle>
	<vehicle depart="0.1" departLane="0" departPos="18.334109212958634" departSpeed="1.353698" id="347" type="passenger">
		<route edges=":62_1 19729"/>
	</vehicle>
	<vehicle depart="0.1" departLane="0" departPos="19.886879493987504" departSpeed="0.86249894" id="327" type="motorcycle">
		<route edges=":62_0 19834"/>
	</vehicle>
</routes>
