<routes>
	<vehicle depart="0.1" departLane="0" departPos="25.77368366128792" departSpeed="6.4344032" id="332" type="bicycle">
		<route edges="5615 5618"/>
	</vehicle>
	<vehicle depart="0.1" departLane="0" departPos="2.5" departSpeed="0.98612397" id="386" type="passenger">
		<route edges=":246_6 5615"/>
	</vehicle>
	<vehicle depart="0.1" departLane="0" departPos="66.23435441295607" departSpeed="2.1440494" id="3106" type="passenger">
		<route edges="6119 6122"/>
	</vehicle>
	<vehicle depart="0.1" departLane="0" departPos="32.9063593655314" departSpeed="7.2233951" id="3203" type="passenger">
		<route edges="5615 5618"/>
	</vehicle>
	<vehicle depart="0.1" departLane="0" departPos="7.570107375127016" departSpeed="9.3324121" id="3213" type="passenger">
		<route edges="5615 5618"/>
	</vehicle>
	<vehicle depart="0.1" departLane="0" departPos="20.51695592635953" departSpeed="9.3675282" id="3221" type="passenger">
		<route edges=":246_4 5615 5618"/>
	</vehicle>
	<vehicle depart="0.1" departLane="0" departPos="7.288963669287956" departSpeed="8.1118346" id="3228" type="passenger">
		<route edges=":246_4 5615"/>
	</vehicle>
	<vehicle depart="0.1" departLane="0" departPos="53.26910752248783" departSpeed="12.618693" id="3244" type="passenger">
		<route edges="5612 5615"/>
	</vehicle>
	<vehicle depart="0.1" departLane="0" departPos="11.766378649992717" departSpeed="11.965728" id="3251" type="passenger">
		<route edges="5612 6122"/>
	</vehicle>
	<vehicle depart="0.1" departLane="0" departPos="9.29018846909732" departSpeed="0.48297972" id="349" type="truck">
		<route edges="6121 5615"/>
	</vehicle>
</routes>
