<routes>
	<vehicle depart="0.1" departLane="0" departPos="42.55693034510946" departSpeed="0.30803523" id="31" type="passenger">
		<route edges=":20_5 1792"/>
	</vehicle>
	<vehicle depart="0.1" departLane="0" departPos="17.3763880539032" departSpeed="7.7410713" id="336" type="passenger">
		<route edges=":20_2 2408"/>
	</vehicle>
	<vehicle depart="0.1" departLane="1" departPos="9.694231521574952" departSpeed="0.0" id="342" type="passenger">
		<route edges="2053 2408"/>
	</vehicle>
	<vehicle depart="0.1" departLane="0" departPos="18.912165027461914" departSpeed="7.9901923" id="343" type="passenger">
		<route edges=":20_6 2408"/>
	</vehicle>
	<vehicle depart="0.1" departLane="0" departPos="5.466066803628223" departSpeed="3.4056876" id="349" type="passenger">
		<route edges=":20_8 1750"/>
	</vehicle>
	<vehicle depart="0.1" departLane="0" departPos="29.372741518440378" departSpeed="10.849854" id="350" type="passenger">
		<route edges=":20_0 1750"/>
	</vehicle>
	<vehicle depart="0.1" departLane="0" departPos="10.200171048502604" departSpeed="0.0" id="351" type="passenger">
		<route edges="1790 2408"/>
	</vehicle>
	<vehicle depart="0.1" departLane="0" departPos="27.163791081620957" departSpeed="10.732413" id="354" type="passenger">
		<route edges="3873 2053 1792"/>
	</vehicle>
</routes>
