<routes>
	<vehicle depart="0.1" departLane="0" departPos="12.900900520850541" departSpeed="3.0450523" id="38" type="bicycle">
		<route edges=":75_1 70906"/>
	</vehicle>
	<vehicle depart="0.1" departLane="0" departPos="29.840070831063763" departSpeed="0.64955932" id="32" type="passenger">
		<route edges=":74_5 70907 70825"/>
	</vehicle>
	<vehicle depart="0.1" departLane="0" departPos="17.25403630053001" departSpeed="3.9872614" id="33" type="passenger">
		<route edges=":75_4 70906 70903"/>
	</vehicle>
	<vehicle depart="0.1" departLane="0" departPos="23.96071445123853" departSpeed="0.0" id="35" type="passenger">
		<route edges="70826 70910"/>
	</vehicle>
	<vehicle depart="0.1" departLane="0" departPos="13.264611275260968" departSpeed="0.13793995" id="311" type="passenger">
		<route edges=":74_5 70907"/>
	</vehicle>
	<vehicle depart="0.1" departLane="0" departPos="6.010886882331517" departSpeed="1.280956" id="312" type="passenger">
		<route edges=":75_1 70906"/>
	</vehicle>
	<vehicle depart="0.1" departLane="0" departPos="4.897211559590332" departSpeed="3.6431574" id="316" type="passenger">
		<route edges=":77_8 70938 70935"/>
	</vehicle>
	<vehicle depart="0.1" departLane="0" departPos="2.5" departSpeed="0.32360498" id="322" type="passenger">
		<route edges=":74_5 70907"/>
	</vehicle>
	<vehicle depart="0.1" departLane="0" departPos="37.844753070985924" departSpeed="1.6805042" id="326" type="passenger">
		<route edges="70693 70907"/>
	</vehicle>
	<vehicle depart="0.1" departLane="0" departPos="47.52749263338971" departSpeed="0.72691065" id="323" type="motorcycle">
		<route edges="70693 70907"/>
	</vehicle>
</routes>
