<routes>
	<vehicle depart="0.1" departLane="0" departPos="8.53156108055744" departSpeed="5.924672" id="313" type="bicycle">
		<route edges=":15_1 73522 69212"/>
	</vehicle>
	<vehicle depart="0.1" departLane="0" departPos="42.38087719965987" departSpeed="0.024102586" id="31" type="passenger">
		<route edges="69210 69674"/>
	</vehicle>
	<vehicle depart="0.1" departLane="0" departPos="16.39086202446549" departSpeed="10.217411" id="315" type="passenger">
		<route edges=":15_1 73522 69212"/>
	</vehicle>
	<vehicle depart="0.1" departLane="0" departPos="8.478665989631669" departSpeed="0.3472002" id="316" type="passenger">
		<route edges=":15_5 73522"/>
	</vehicle>
	<vehicle depart="0.1" departLane="0" departPos="66.25704467966482" departSpeed="0.34087873" id="317" type="passenger">
		<route edges="69593 69054"/>
	</vehicle>
	<vehicle depart="0.1" departLane="0" departPos="68.83657839511085" departSpeed="5.0528734" id="318" type="passenger">
		<route edges="69053 73522"/>
	</vehicle>
	<vehicle depart="0.1" departLane="0" departPos="50.86584458350944" departSpeed="5.0684303" id="321" type="passenger">
		<route edges="69053 69594"/>
	</vehicle>
	<vehicle depart="0.1" departLane="0" departPos="36.61990379467145" departSpeed="4.6183444" id="323" type="passenger">
		<route edges="69053 69594"/>
	</vehicle>
	<vehicle depart="0.1" departLane="0" departPos="29.0879385362281" departSpeed="4.0349281" id="325" type="passenger">
		<route edges="69053 69594"/>
	</vehicle>
	<vehicle depart="0.1" departLane="0" departPos="11.46778341474083" departSpeed="0.84117351" id="30" type="truck">
		<route edges="69674 69054"/>
	</vehicle>
</routes>
