<!-- generated on 2020-12-18 15:54:02.522686 by ipykernel_launcher.py v1_2_0+5214-53edc58fcd
-->
<edges>
	<edge from="1" function="normal" id="20" length="96.58729054355736" numLanes="5" priority="1" speed="36.11111111111111" spreadType="center" to="2">
		<lane allow="moped bicycle pedestrian custom1 trailer evehicle rail_urban ship private vip custom2 authority delivery rail_electric taxi tram army hov coach motorcycle passenger rail emergency" index="0" length="96.58729054355736" shape="-28.21405,22.33035 -20.95515,15.42985 -18.1175,12.66575 -10.61805,5.65895 -7.78035,2.89485 -3.24075,-1.35115 0.27740000000000004,-4.5955 3.1829,-7.2896 10.994900000000001,-14.40635 11.57515,-14.943999999999999 13.9369,-17.11565 21.2438,-23.7309 22.0432,-24.4633 24.9624,-27.17955 28.02465,-29.928800000000003 32.838049999999996,-34.098 35.78555,-36.7429 37.33395,-38.082350000000005 43.2721,-43.24635 43.281549999999996,-43.254599999999996" speed="36.11111111111111" width="3.451802782605053"/>
		<lane allow="moped bicycle pedestrian custom1 trailer evehicle rail_urban ship private truck vip custom2 authority delivery rail_electric taxi tram army hov coach motorcycle passenger rail emergency" index="1" length="96.58729054355736" shape="-25.853749999999998,24.86055 -20.85015,20.1464 -18.550150000000002,17.90095 -18.050449999999998,17.401249999999997 -15.7912,15.2141 -10.27755,10.0914 -8.22425,8.1198 -7.484500000000001,7.380050000000001 -5.4888,5.4755 0.51535,-0.03115000000000001 2.6629,-2.02245 3.41965,-2.7281 5.5457,-4.69125 11.198599999999999,-9.819600000000001 13.403749999999999,-11.8403 14.09245,-12.48245 16.27055,-14.471150000000002 22.4043,-19.98545 24.475099999999998,-21.88675 25.297400000000003,-22.65355 27.33585,-24.5106 33.1598,-29.6297 35.195949999999996,-31.462850000000003 36.0463,-32.2558 38.04575,-34.06265 44.1587,-39.3904 45.5569,-40.6476" speed="36.11111111111111" width="3.250550685653128"/>
		<lane allow="moped bicycle pedestrian custom1 trailer evehicle rail_urban ship private truck vip custom2 authority delivery rail_electric taxi tram army hov coach motorcycle passenger bus rail emergency" index="2" length="96.58729054355736" shape="-23.556449999999998,27.32325 -21.631549999999997,25.465600000000002 -18.54845,22.5673 -15.742049999999999,19.83435 -13.87255,18.06955 -11.0268,15.31455 -8.0393,12.532499999999999 -5.2244,9.8265 -2.9696499999999997,7.75295 -0.10549999999999998,5.0195 2.7578,2.4269499999999997 5.6647,-0.23615000000000003 8.275300000000001,-2.6052 11.186399999999999,-5.29315 13.4324,-7.3393 16.33615,-10.01065 19.06355,-12.468 21.98925,-15.13935 24.63485,-17.50845 27.53505,-20.16055 30.0989,-22.4521 33.02745,-25.119999999999997 35.290949999999995,-27.086550000000003 38.21875,-29.68825 40.9816,-32.07325 43.9203,-34.729 46.3598,-36.871849999999995 47.7513,-38.13335" speed="36.11111111111111" width="3.1897109727998862"/>
		<lane allow="moped bicycle pedestrian custom1 trailer evehicle rail_urban ship private truck vip custom2 authority delivery rail_electric taxi tram army hov coach motorcycle passenger rail emergency" index="3" length="96.58729054355736" shape="-21.2593,29.78575 -19.32595,27.85425 -19.0823,27.6177 -11.5719,20.551499999999997 -11.40785,20.393349999999998 -8.71345,17.701749999999997 -8.511,17.5088 -0.68865,10.22115 -0.67615,10.208649999999999 2.11365,7.516 2.2933,7.3482 10.28425,0.09609999999999996 10.5471,-0.14515 13.16235,-2.5839 13.425650000000001,-2.8274000000000004 21.13245,-9.85985 21.30225,-10.016300000000001 24.01495,-12.5459 24.148200000000003,-12.667449999999999 32.15835,-19.8353 32.33545,-19.99765 35.03385,-22.51395 35.15545,-22.6238 43.19265,-29.54555 43.27695,-29.6217 46.13095,-32.28085 46.24915,-32.387100000000004 49.9684,-35.5931" speed="36.11111111111111" width="3.2118758662189872"/>
		<lane allow="moped bicycle pedestrian custom1 trailer evehicle rail_urban ship private truck vip custom2 authority delivery rail_electric taxi tram army hov coach motorcycle passenger rail emergency" index="4" length="96.58729054355736" shape="-18.92025,32.2932 -16.69325,30.06845 -16.45215,29.837049999999998 -8.95745,22.84565 -8.761,22.65585 -6.107749999999999,20.00565 -5.8705,19.77715 1.7582,12.62155 2.0435,12.35475 4.652,9.92225 4.955,9.6425 12.600449999999999,2.6479 12.891200000000001,2.3794 15.5119,-0.06434999999999991 15.813099999999999,-0.34280000000000005 23.4364,-7.3353 23.7269,-7.604 26.346,-10.04615 26.66695,-10.33835 34.4448,-17.27965 34.73715,-17.54635 37.3742,-20.00425 37.71055,-20.306649999999998 45.561,-27.16585 45.8547,-27.430950000000003 48.5058,-29.90075 48.86855,-30.2195 52.203900000000004,-33.03175" speed="36.11111111111111" width="3.4793965583129465"/>
	</edge>
	<edge from="2" function="normal" id="16" length="67.2824743047437" numLanes="6" priority="1" speed="36.11111111111111" spreadType="center" to="3">
		<lane allow="moped bicycle pedestrian custom1 trailer evehicle rail_urban ship private truck vip custom2 authority delivery rail_electric taxi tram army hov coach motorcycle passenger rail emergency" index="0" length="67.2824743047437" shape="40.8153,-46.080299999999994 42.97955,-47.9353 43.70295,-48.58115 46.3728,-50.89515 47.096149999999994,-51.541 49.798249999999996,-53.9193 50.52160000000001,-54.565200000000004 53.239000000000004,-56.9538 53.96235,-57.59965 56.6322,-59.913700000000006 57.355599999999995,-60.55955 58.08255,-61.19075 60.08605,-62.93315 60.808949999999996,-63.5796 63.492399999999996,-65.94035 64.2153,-66.5868 66.96745,-68.98519999999999 67.69035,-69.63165000000001 70.26205,-71.85759999999999 70.98490000000001,-72.50405 73.70175,-74.8356 74.42465,-75.482 77.26855,-77.993 77.99145,-78.63945000000001 80.6505,-80.99244999999999 81.3734,-81.6389 84.18645000000001,-84.0606 84.90934999999999,-84.707 87.53965,-87.00899999999999 88.2625,-87.65545 90.97040000000001,-90.024 91.41695,-90.42320000000001" speed="36.11111111111111" width="3.73934780409633"/>
		<lane allow="moped bicycle pedestrian custom1 trailer evehicle rail_urban ship private vip custom2 authority delivery rail_electric taxi tram army hov coach motorcycle passenger rail emergency" index="1" length="67.2824743047437" shape="43.281549999999996,-43.254599999999996 43.8874,-43.77145 45.46795,-45.17445 46.18085,-45.832 46.82,-46.40245 48.66475,-47.92855 49.31935,-48.4833 49.4323,-48.5744 50.0246,-49.07325 50.206050000000005,-49.238299999999995 52.299350000000004,-51.132 52.32085,-51.15175 53.019149999999996,-51.79600000000001 53.1121,-51.879599999999996 55.6755,-54.13355 56.3564,-54.74145 56.4259,-54.8017 59.084149999999994,-57.1079 59.749300000000005,-57.7019 59.812749999999994,-57.7572 60.28385,-58.1676 62.55115,-60.2034 63.19069999999999,-60.79325 63.21495,-60.81465 69.34989999999999,-66.09270000000001 70.02455,-66.68289999999999 70.12270000000001,-66.76634999999999 71.0307,-67.53935000000001 71.0954,-67.5993 72.7637,-69.08885000000001 73.47655,-69.74645 73.99305,-70.20044999999999 76.1426,-72.0344 76.79765,-72.61664999999999 76.84945,-72.662 79.68175,-75.14875 80.37215,-75.762 80.4218,-75.80539999999999 82.0335,-77.2238 83.1417,-78.2359 83.85464999999999,-78.89349999999999 85.00805,-79.91499999999999 86.60365,-81.27435 87.24785,-81.84434999999999 87.31739999999999,-81.90455 89.9462,-84.18289999999999 90.6147,-84.77395 90.6861,-84.8357 93.00739999999999,-86.84649999999999 93.02844999999999,-86.8649 93.4196,-87.2055 93.87195,-87.60825" speed="36.11111111111111" width="3.5043532142179985"/>
		<lane allow="moped bicycle pedestrian custom1 trailer evehicle rail_urban ship private vip custom2 authority delivery rail_electric taxi tram army hov coach motorcycle passenger rail emergency" index="2" length="67.2824743047437" shape="45.5569,-40.6476 46.162850000000006,-41.1937 47.04515000000001,-42.0165 48.92125,-43.68445 49.0841,-43.8174 52.45575,-46.5877 54.980000000000004,-48.8258 55.0869,-48.92445 55.4566,-49.265 55.512950000000004,-49.314750000000004 58.07985,-51.632450000000006 62.53915000000001,-55.480999999999995 65.40885,-58.038250000000005 65.52680000000001,-58.13895 66.16460000000001,-58.6833 66.24095,-58.753699999999995 69.13815,-61.317499999999995 73.32305,-64.872 76.16785,-67.4159 76.26525000000001,-67.50005 77.2707,-68.36959999999999 80.22104999999999,-71.0209 84.3291,-74.54405 87.18854999999999,-77.0883 87.3005,-77.18415 88.41415,-78.139 88.47325000000001,-78.1937 91.3709,-80.7842 95.3366,-84.2539 96.16295,-84.9813" speed="36.11111111111111" width="3.2179854148208937"/>
		<lane allow="moped bicycle pedestrian custom1 trailer evehicle rail_urban ship private truck vip custom2 authority delivery rail_electric taxi tram army hov coach motorcycle passenger rail emergency" index="3" length="67.2824743047437" shape="47.7513,-38.13335 49.222,-39.4664 49.32225,-39.55265 52.19855,-42.0373 55.1607,-44.666799999999995 57.29605,-46.4714 60.1327,-48.9906 60.25125,-49.0914 63.264050000000005,-51.65305 66.22194999999999,-54.28975 68.3639,-56.139399999999995 71.2251,-58.724199999999996 71.3159,-58.80285 74.3794,-61.45915 77.33245,-64.0998 79.37434999999999,-65.82255 82.23715,-68.34055 82.36925,-68.45145 85.50495000000001,-71.0899 88.46515,-73.72455 90.62975,-75.58494999999999 93.4863,-78.1575 93.5573,-78.2199 96.73715,-81.0218 98.34094999999999,-82.48400000000001" speed="36.11111111111111" width="3.1175293182262065"/>
		<lane allow="moped bicycle pedestrian custom1 trailer evehicle rail_urban ship private vip custom2 authority delivery rail_electric taxi tram army hov coach motorcycle passenger rail emergency" index="4" length="67.2824743047437" shape="49.9684,-35.5931 54.277150000000006,-39.30715 54.46965,-39.48255 57.14165,-41.974199999999996 57.202799999999996,-42.03125 57.3294,-42.13915 65.46960000000001,-49.0788 65.6385,-49.23165 68.42045,-51.8221 68.58185,-51.96685 76.5909,-58.8439 76.66405,-58.9112 79.44805,-61.5073 87.69735,-68.55590000000001 87.81819999999999,-68.6662 90.63215,-71.28829999999999 90.7621,-71.40405 98.91274999999999,-78.4024 99.02975,-78.50915 100.5617,-79.9377" speed="36.11111111111111" width="3.2654832184532787"/>
		<lane allow="moped bicycle pedestrian custom1 trailer evehicle rail_urban ship private vip custom2 authority delivery rail_electric taxi tram army hov coach motorcycle passenger rail emergency" index="5" length="67.2824743047437" shape="52.203900000000004,-33.03175 56.536950000000004,-36.6853 56.76885,-36.88805 56.89385,-37.0043 59.5051,-39.4337 59.8575,-39.747150000000005 67.9278,-46.675250000000005 68.17,-46.89 68.2732,-46.9861 70.88355,-49.41645 71.24895000000001,-49.737449999999995 78.88595000000001,-56.17175 79.11744999999999,-56.373999999999995 79.24334999999999,-56.4911 81.85464999999999,-58.92045 82.19035,-59.2232 90.08715,-66.1585 90.3423,-66.38835 90.41765000000001,-66.45855 93.02709999999999,-68.88985 93.3869,-69.20725 101.15395,-75.7918 101.38895,-75.99815 101.50735,-76.1084 102.82885,-77.3381" speed="36.11111111111111" width="3.4791584298505245"/>
	</edge>
	<edge from="4" function="normal" id="17" length="97.44165621578603" numLanes="1" priority="1" speed="36.11111111111111" spreadType="center" to="2">
		<lane allow="moped bicycle pedestrian custom1 trailer evehicle rail_urban ship private truck vip custom2 authority delivery rail_electric taxi tram army hov coach motorcycle passenger bus rail emergency" index="0" length="97.44165621578603" shape="-34.995149999999995,15.06115 -34.0561,14.448550000000001 -32.17515,13.23505 -31.057700000000004,12.464500000000001 -25.42525,8.3531 -24.0198,7.283049999999999 -16.0933,1.2044000000000001 -9.65655,-3.9327 -4.5283999999999995,-8.10665 3.1932,-14.3924 4.8473500000000005,-15.75905 13.39895,-22.86235 25.244,-32.64775 25.565199999999997,-32.9132 31.42205,-37.894949999999994 34.882,-40.89985 40.8153,-46.080299999999994" speed="36.11111111111111" width="3.640006708785026"/>
	</edge>
</edges>
