<routes>
	<vehicle depart="0.1" departLane="0" departPos="33.8300677442412" departSpeed="0.34921716" id="32" type="passenger">
		<route edges="4012 4061"/>
	</vehicle>
	<vehicle depart="0.1" departLane="0" departPos="10.873633369183299" departSpeed="0.62172138" id="36" type="passenger">
		<route edges=":120_4 4057"/>
	</vehicle>
	<vehicle depart="0.1" departLane="0" departPos="44.16139966229705" departSpeed="0.54467292" id="38" type="passenger">
		<route edges="4060 4009"/>
	</vehicle>
	<vehicle depart="0.1" departLane="0" departPos="18.22078349400109" departSpeed="8.3489722" id="356" type="passenger">
		<route edges="4010 4057"/>
	</vehicle>
	<vehicle depart="0.1" departLane="0" departPos="18.86505434119062" departSpeed="0.52362565" id="381" type="passenger">
		<route edges="4060 4009"/>
	</vehicle>
	<vehicle depart="0.1" departLane="0" departPos="50.1432713290072" departSpeed="0.4616413" id="391" type="passenger">
		<route edges="4060 4009"/>
	</vehicle>
	<vehicle depart="0.1" departLane="0" departPos="29.28863009580018" departSpeed="1.4479915" id="372" type="motorcycle">
		<route edges="4060 4009"/>
	</vehicle>
</routes>
