<routes>
	<vehicle depart="0.1" departLane="0" departPos="18.002961340927264" departSpeed="1.6315525" id="34" type="passenger">
		<route edges="86583 86479"/>
	</vehicle>
	<vehicle depart="0.1" departLane="0" departPos="56.68691728106305" departSpeed="0.71669617" id="38" type="passenger">
		<route edges="86580 86583"/>
	</vehicle>
	<vehicle depart="0.1" departLane="0" departPos="45.86428793813152" departSpeed="0.44759486" id="39" type="passenger">
		<route edges="86580 86583"/>
	</vehicle>
	<vehicle depart="0.1" departLane="0" departPos="24.578883194969688" departSpeed="2.191332" id="313" type="passenger">
		<route edges=":49_3 86634"/>
	</vehicle>
	<vehicle depart="0.1" departLane="0" departPos="71.14946086986107" departSpeed="2.4682278" id="322" type="passenger">
		<route edges="86580 86583 86479"/>
	</vehicle>
	<vehicle depart="0.1" departLane="0" departPos="35.38921129040251" departSpeed="1.1930441" id="327" type="passenger">
		<route edges="86580 86583"/>
	</vehicle>
	<vehicle depart="0.1" departLane="0" departPos="20.622498196486767" departSpeed="6.9304197" id="338" type="passenger">
		<route edges=":47_4 86633 86630"/>
	</vehicle>
	<vehicle depart="0.1" departLane="0" departPos="63.17268602413335" departSpeed="1.7571153" id="36" type="motorcycle">
		<route edges="86580 86583"/>
	</vehicle>
	<vehicle depart="0.1" departLane="0" departPos="27.92127414306018" departSpeed="1.0345036" id="329" type="motorcycle">
		<route edges="86580 86583"/>
	</vehicle>
	<vehicle depart="0.1" departLane="0" departPos="1.25" departSpeed="8.7197919" id="341" type="motorcycle">
		<route edges=":47_4 86633 86650"/>
	</vehicle>
</routes>
