<!-- generated on Tue Feb  9 22:02:21 2021 by Eclipse SUMO netconvert Version 1.8.0
<configuration xmlns:xsi="http://www.w3.org/2001/XMLSchema-instance" xsi:noNamespaceSchemaLocation="http://sumo.dlr.de/xsd/netconvertConfiguration.xsd">

    <input>
        <node-files value="./converted_scenarios/scenario-factory/ESP_Cambre-3_1_I-1-1/ESP_Cambre-3_1_I-1-1.nod.xml"/>
        <edge-files value="./converted_scenarios/scenario-factory/ESP_Cambre-3_1_I-1-1/ESP_Cambre-3_1_I-1-1.edg.xml"/>
        <connection-files value="./converted_scenarios/scenario-factory/ESP_Cambre-3_1_I-1-1/ESP_Cambre-3_1_I-1-1.con.xml"/>
        <tllogic-files value="./converted_scenarios/scenario-factory/ESP_Cambre-3_1_I-1-1/ESP_Cambre-3_1_I-1-1.tll.xml"/>
        <type-files value="/home/zen/commonroad-interactive-benchmarks/install/commonroad-map-tool/crmapconverter/sumo_map/templates/DEU.typ.xml"/>
    </input>

    <output>
        <output-file value="./converted_scenarios/scenario-factory/ESP_Cambre-3_1_I-1-1/ESP_Cambre-3_1_I-1-1.net.xml"/>
    </output>

    <processing>
        <geometry.remove.keep-edges.explicit value="true"/>
        <geometry.avoid-overlap value="true"/>
        <offset.disable-normalization value="true"/>
    </processing>

    <junctions>
        <no-turnarounds value="true"/>
        <junctions.internal-link-detail value="20"/>
    </junctions>

    <report>
        <aggregate-warnings value="5"/>
    </report>

    <random_number>
        <seed value="1234"/>
    </random_number>

</configuration>
--><net xmlns:xsi="http://www.w3.org/2001/XMLSchema-instance" version="1.6" junctionCornerDetail="5" junctionLinkDetail="20" limitTurnSpeed="5.50" xsi:noNamespaceSchemaLocation="http://sumo.dlr.de/xsd/net_file.xsd">

    <location netOffset="0.00,0.00" convBoundary="-548.23,512.52,-348.82,698.04" origBoundary="-548.23,512.52,-348.82,698.04" projParameter="!"/>

    <type id="highway.bridleway" priority="1" speed="2.78" allow="pedestrian" oneway="1" width="2.00"/>
    <type id="highway.bus_guideway" priority="1" speed="27.78" allow="bus" oneway="1"/>
    <type id="highway.cycleway" priority="1" speed="8.33" allow="bicycle" oneway="0" width="1.00"/>
    <type id="highway.footway" priority="1" speed="2.78" allow="pedestrian" oneway="1" width="2.00"/>
    <type id="highway.ford" priority="1" speed="2.78" allow="army" oneway="0"/>
    <type id="highway.living_street" priority="2" speed="2.78" disallow="tram rail_urban rail rail_electric rail_fast ship" oneway="0"/>
    <type id="highway.motorway" priority="14" speed="39.44" allow="private emergency authority army vip passenger hov taxi bus coach delivery truck trailer motorcycle evehicle custom1 custom2" oneway="1"/>
    <type id="highway.motorway_link" priority="9" speed="22.22" allow="private emergency authority army vip passenger hov taxi bus coach delivery truck trailer motorcycle evehicle custom1 custom2" oneway="1"/>
    <type id="highway.path" priority="1" speed="2.78" allow="pedestrian bicycle" oneway="0" width="2.00"/>
    <type id="highway.pedestrian" priority="1" speed="2.78" allow="pedestrian" oneway="1" width="2.00"/>
    <type id="highway.primary" priority="12" speed="27.78" disallow="pedestrian tram rail_urban rail rail_electric rail_fast ship" oneway="0"/>
    <type id="highway.primary_link" priority="7" speed="22.22" disallow="pedestrian tram rail_urban rail rail_electric rail_fast ship" oneway="0"/>
    <type id="highway.raceway" priority="15" speed="83.33" allow="vip" oneway="0"/>
    <type id="highway.residential" priority="3" speed="13.89" disallow="pedestrian tram rail_urban rail rail_electric rail_fast ship" oneway="0"/>
    <type id="highway.secondary" priority="11" speed="27.78" disallow="pedestrian tram rail_urban rail rail_electric rail_fast ship" oneway="0"/>
    <type id="highway.secondary_link" priority="6" speed="22.22" disallow="pedestrian tram rail_urban rail rail_electric rail_fast ship" oneway="0"/>
    <type id="highway.service" priority="1" speed="5.56" allow="pedestrian delivery bicycle" oneway="0"/>
    <type id="highway.stairs" priority="1" speed="1.39" allow="pedestrian" oneway="1" width="2.00"/>
    <type id="highway.step" priority="1" speed="1.39" allow="pedestrian" oneway="1" width="2.00"/>
    <type id="highway.steps" priority="1" speed="1.39" allow="pedestrian" oneway="1" width="2.00"/>
    <type id="highway.tertiary" priority="10" speed="22.22" disallow="pedestrian tram rail_urban rail rail_electric rail_fast ship" oneway="0"/>
    <type id="highway.tertiary_link" priority="5" speed="22.22" disallow="pedestrian tram rail_urban rail rail_electric rail_fast ship" oneway="0"/>
    <type id="highway.track" priority="1" speed="5.56" allow="pedestrian motorcycle moped bicycle" oneway="0"/>
    <type id="highway.trunk" priority="13" speed="27.78" disallow="pedestrian bicycle tram rail_urban rail rail_electric rail_fast ship" oneway="0"/>
    <type id="highway.trunk_link" priority="8" speed="22.22" disallow="pedestrian bicycle tram rail_urban rail rail_electric rail_fast ship" oneway="0"/>
    <type id="highway.unclassified" priority="4" speed="13.89" disallow="pedestrian tram rail_urban rail rail_electric rail_fast ship" oneway="0"/>
    <type id="highway.unsurfaced" priority="1" speed="8.33" disallow="tram rail_urban rail rail_electric rail_fast ship" oneway="0"/>
    <type id="railway.highspeed" priority="21" speed="69.44" allow="rail_fast" oneway="1"/>
    <type id="railway.light_rail" priority="19" speed="27.78" allow="rail_urban" oneway="1"/>
    <type id="railway.preserved" priority="16" speed="27.78" allow="rail" oneway="1"/>
    <type id="railway.rail" priority="20" speed="44.44" allow="rail" oneway="1"/>
    <type id="railway.subway" priority="18" speed="27.78" allow="rail_urban" oneway="1"/>
    <type id="railway.tram" priority="17" speed="13.89" allow="tram" oneway="1"/>

    <edge id=":24_0" function="internal">
        <lane id=":24_0_0" index="0" disallow="pedestrian tram rail_urban rail rail_electric rail_fast ship" speed="36.11" length="2.99" width="3.50" shape="-472.56,634.60 -471.05,637.18"/>
    </edge>
    <edge id=":26_0" function="internal">
        <lane id=":26_0_0" index="0" disallow="pedestrian tram rail_urban rail rail_electric rail_fast ship" speed="36.11" length="2.99" width="3.50" shape="-490.55,578.74 -489.60,575.91"/>
    </edge>
    <edge id=":32_0" function="internal">
        <lane id=":32_0_0" index="0" disallow="pedestrian tram rail_urban rail rail_electric rail_fast ship" speed="36.11" length="2.98" width="3.50" shape="-514.30,580.27 -516.37,578.13"/>
    </edge>
    <edge id=":39_0" function="internal">
        <lane id=":39_0_0" index="0" disallow="pedestrian tram rail_urban rail rail_electric rail_fast ship" speed="36.11" length="2.99" width="3.50" shape="-474.06,638.95 -475.58,636.38"/>
    </edge>
    <edge id=":41_0" function="internal">
        <lane id=":41_0_0" index="0" disallow="pedestrian tram rail_urban rail rail_electric rail_fast ship" speed="36.11" length="2.97" width="3.49" shape="-513.84,575.70 -511.78,577.84"/>
    </edge>
    <edge id=":44_0" function="internal">
        <lane id=":44_0_0" index="0" disallow="pedestrian tram rail_urban rail rail_electric rail_fast ship" speed="36.11" length="2.99" width="3.49" shape="-486.29,577.04 -487.24,579.87"/>
    </edge>
    <edge id=":47_0" function="internal">
        <lane id=":47_0_0" index="0" disallow="pedestrian tram rail_urban rail rail_electric rail_fast ship" speed="36.11" length="35.42" width="3.50" shape="-428.24,612.43 -429.32,612.21 -462.80,604.67"/>
    </edge>
    <edge id=":47_1" function="internal">
        <lane id=":47_1_0" index="0" disallow="pedestrian tram rail_urban rail rail_electric rail_fast ship" speed="11.74" length="32.47" width="3.50" shape="-428.24,612.43 -429.55,612.16 -432.08,611.48 -434.58,610.53 -436.95,609.25 -438.11,608.45 -439.18,607.55 -440.17,606.55 -441.05,605.46 -441.83,604.28 -442.48,603.03 -443.01,601.73 -443.42,600.41 -443.71,599.06 -443.91,597.69 -444.03,595.04 -443.86,592.39 -443.24,588.59"/>
    </edge>
    <edge id=":47_2" function="internal">
        <lane id=":47_2_0" index="0" disallow="pedestrian tram rail_urban rail rail_electric rail_fast ship" speed="10.66" length="26.75" width="3.50" shape="-439.82,589.32 -440.36,592.60 -440.50,594.83 -440.41,597.06 -440.25,598.16 -440.02,599.26 -439.70,600.32 -439.28,601.36 -438.77,602.35 -438.16,603.29 -437.46,604.16 -436.68,604.96 -435.83,605.68 -434.92,606.32 -432.96,607.38 -430.88,608.18 -428.72,608.76 -427.63,608.98"/>
    </edge>
    <edge id=":47_3" function="internal">
        <lane id=":47_3_0" index="0" disallow="pedestrian tram rail_urban rail rail_electric rail_fast ship" speed="11.54" length="31.67" width="3.50" shape="-439.82,589.32 -440.82,592.96 -441.76,595.38 -442.97,597.71 -444.48,599.86 -445.40,600.89 -446.39,601.82 -447.48,602.67 -448.64,603.40 -449.86,604.02 -451.13,604.52 -452.44,604.90 -453.76,605.17 -455.11,605.33 -457.71,605.38 -460.29,605.14 -462.80,604.67"/>
    </edge>
    <edge id=":47_4" function="internal">
        <lane id=":47_4_0" index="0" disallow="pedestrian tram rail_urban rail rail_electric rail_fast ship" speed="10.44" length="25.88" width="3.50" shape="-461.87,601.29 -459.89,601.66 -457.73,601.86 -455.55,601.81 -454.48,601.67 -453.41,601.46 -452.37,601.15 -451.36,600.75 -450.39,600.25 -449.48,599.67 -448.63,598.99 -447.84,598.25 -447.12,597.43 -445.87,595.65 -444.88,593.72 -444.09,591.70 -443.24,588.59"/>
    </edge>
    <edge id=":47_5" function="internal">
        <lane id=":47_5_0" index="0" disallow="pedestrian tram rail_urban rail rail_electric rail_fast ship" speed="36.11" length="35.09" width="3.50" shape="-461.87,601.29 -428.64,608.78 -427.63,608.98"/>
    </edge>
    <edge id=":48_0" function="internal">
        <lane id=":48_0_0" index="0" disallow="pedestrian tram rail_urban rail rail_electric rail_fast ship" speed="7.11" length="15.02" width="3.50" shape="-479.88,598.22 -481.82,597.29 -483.80,596.46 -484.80,596.10 -485.83,595.79 -486.87,595.55 -487.93,595.42 -489.00,595.46 -490.01,595.78 -490.78,596.51 -491.15,597.51 -491.32,595.33"/>
    </edge>
    <edge id=":48_1" function="internal">
        <lane id=":48_1_0" index="0" disallow="pedestrian tram rail_urban rail rail_electric rail_fast ship" speed="10.68" length="22.13" width="3.46" shape="-479.88,598.22 -480.88,597.75 -483.93,596.47 -488.07,594.70 -490.19,593.57 -491.32,592.79 -492.39,591.74 -493.27,590.13 -492.29,584.10"/>
    </edge>
    <edge id=":48_2" function="internal">
        <lane id=":48_2_0" index="0" disallow="pedestrian tram rail_urban rail rail_electric rail_fast ship" speed="9.69" length="18.82" width="3.50" shape="-488.78,584.55 -490.04,589.94 -489.69,590.89 -488.99,591.63 -488.11,592.16 -486.20,592.88 -482.21,593.84 -479.26,594.68 -478.33,595.09"/>
    </edge>
    <edge id=":48_3" function="internal">
        <lane id=":48_3_0" index="0" disallow="pedestrian tram rail_urban rail rail_electric rail_fast ship" speed="29.33" length="13.20" width="3.50" shape="-488.78,584.55 -490.80,593.18 -491.18,596.41 -491.32,595.33"/>
    </edge>
    <edge id=":48_4" function="internal">
        <lane id=":48_4_0" index="0" disallow="pedestrian tram rail_urban rail rail_electric rail_fast ship" speed="36.11" length="15.14" width="3.46" shape="-494.81,593.51 -494.67,596.25 -494.27,592.73 -492.29,584.10"/>
    </edge>
    <edge id=":48_5" function="internal">
        <lane id=":48_5_0" index="0" disallow="pedestrian tram rail_urban rail rail_electric rail_fast ship" speed="8.72" length="23.23" width="3.50" shape="-494.81,593.51 -494.65,597.05 -494.21,595.29 -493.13,593.57 -491.46,592.39 -489.68,591.89 -488.01,591.84 -486.45,592.04 -484.98,592.38 -483.55,592.83 -480.88,593.88 -478.33,595.09"/>
    </edge>
    <edge id=":49_0" function="internal">
        <lane id=":49_0_0" index="0" disallow="pedestrian tram rail_urban rail rail_electric rail_fast ship" speed="10.80" length="25.71" width="3.50" shape="-418.96,579.95 -422.18,579.42 -425.37,579.17 -427.51,579.20 -429.64,579.42 -431.73,579.90 -432.74,580.25 -433.71,580.69 -434.65,581.21 -435.52,581.82 -436.33,582.52 -437.07,583.30 -437.72,584.14 -438.29,585.05 -439.17,587.00 -439.76,589.05"/>
    </edge>
    <edge id=":49_1" function="internal">
        <lane id=":49_1_0" index="0" disallow="pedestrian tram rail_urban rail rail_electric rail_fast ship" speed="11.71" length="36.61" width="3.50" shape="-418.96,579.95 -422.78,579.01 -425.29,578.13 -427.72,577.01 -430.01,575.59 -431.12,574.72 -432.14,573.75 -433.07,572.69 -433.90,571.53 -434.60,570.29 -435.17,568.99 -435.60,567.64 -435.89,566.26 -436.06,564.85 -436.07,562.15 -435.73,559.48 -435.14,556.89 -433.92,553.24"/>
    </edge>
    <edge id=":49_2" function="internal">
        <lane id=":49_2_0" index="0" disallow="pedestrian tram rail_urban rail rail_electric rail_fast ship" speed="10.69" length="30.29" width="3.50" shape="-430.64,554.47 -431.71,557.66 -432.21,559.85 -432.50,562.08 -432.49,564.33 -432.35,565.44 -432.12,566.54 -431.77,567.61 -431.33,568.64 -430.77,569.62 -430.12,570.53 -429.37,571.37 -428.55,572.14 -427.67,572.84 -425.76,574.02 -423.72,574.96 -421.60,575.70 -418.36,576.50"/>
    </edge>
    <edge id=":49_3" function="internal">
        <lane id=":49_3_0" index="0" disallow="pedestrian tram rail_urban rail rail_electric rail_fast ship" speed="36.11" length="35.79" width="3.50" shape="-430.64,554.47 -432.31,559.30 -434.56,567.16 -437.51,579.08 -439.76,589.05"/>
    </edge>
    <edge id=":49_4" function="internal">
        <lane id=":49_4_0" index="0" disallow="pedestrian tram rail_urban rail rail_electric rail_fast ship" speed="36.11" length="36.29" width="3.50" shape="-443.18,588.30 -440.90,578.22 -437.92,566.17 -435.62,558.17 -433.92,553.24"/>
    </edge>
    <edge id=":49_5" function="internal">
        <lane id=":49_5_0" index="0" disallow="pedestrian tram rail_urban rail rail_electric rail_fast ship" speed="11.87" length="31.12" width="3.50" shape="-443.18,588.30 -442.47,585.81 -441.42,583.43 -440.72,582.25 -439.92,581.15 -439.01,580.14 -438.00,579.22 -436.91,578.41 -435.75,577.71 -434.54,577.13 -433.27,576.65 -430.77,576.02 -428.22,575.71 -425.68,575.65 -421.97,575.92 -418.36,576.50"/>
    </edge>
    <edge id=":50_0" function="internal">
        <lane id=":50_0_0" index="0" disallow="pedestrian tram rail_urban rail rail_electric rail_fast ship" speed="22.05" length="39.11" width="3.50" shape="-494.01,628.06 -494.31,619.93 -494.79,613.86 -495.44,608.82 -496.21,604.83 -496.98,601.89 -498.02,599.02 -503.88,591.35"/>
    </edge>
    <edge id=":50_1" function="internal">
        <lane id=":50_1_0" index="0" disallow="pedestrian tram rail_urban rail rail_electric rail_fast ship" speed="36.11" length="34.36" width="3.50" shape="-494.01,628.06 -494.65,601.02 -494.81,593.71"/>
    </edge>
    <edge id=":50_2" function="internal">
        <lane id=":50_2_0" index="0" disallow="pedestrian tram rail_urban rail rail_electric rail_fast ship" speed="36.11" length="36.37" width="3.50" shape="-485.09,622.29 -488.10,618.51 -489.89,615.77 -491.95,611.94 -496.90,601.05 -503.88,591.35"/>
    </edge>
    <edge id=":50_3" function="internal">
        <lane id=":50_3_0" index="0" disallow="pedestrian tram rail_urban rail rail_electric rail_fast ship" speed="20.94" length="31.04" width="3.50" shape="-485.09,622.29 -488.24,618.36 -490.12,615.45 -491.70,612.37 -492.96,609.15 -493.87,605.81 -494.45,602.39 -494.81,593.71"/>
    </edge>
    <edge id=":50_4" function="internal">
        <lane id=":50_4_0" index="0" disallow="pedestrian tram rail_urban rail rail_electric rail_fast ship" speed="19.70" length="26.68" width="3.50" shape="-491.31,595.53 -490.98,601.95 -490.46,605.03 -489.64,608.04 -488.51,610.93 -487.09,613.70 -485.39,616.32 -482.47,619.96"/>
    </edge>
    <edge id=":50_5" function="internal">
        <lane id=":50_5_0" index="0" disallow="pedestrian tram rail_urban rail rail_electric rail_fast ship" speed="36.11" length="32.46" width="3.50" shape="-491.31,595.53 -491.15,600.92 -490.51,627.98"/>
    </edge>
    <edge id=":50_6" function="internal">
        <lane id=":50_6_0" index="0" disallow="pedestrian tram rail_urban rail rail_electric rail_fast ship" speed="36.11" length="35.65" width="3.50" shape="-500.79,589.57 -493.84,599.37 -488.97,610.12 -487.01,613.79 -485.34,616.36 -482.47,619.96"/>
    </edge>
    <edge id=":50_7" function="internal">
        <lane id=":50_7_0" index="0" disallow="pedestrian tram rail_urban rail rail_electric rail_fast ship" speed="22.61" length="40.85" width="3.50" shape="-500.79,589.57 -494.87,597.51 -493.73,600.61 -492.87,603.77 -492.04,607.98 -491.34,613.25 -490.82,619.58 -490.51,627.98"/>
    </edge>

    <edge id="86472" from="26" to="27" priority="3" type="highway.residential" spreadType="center" length="68.50">
        <lane id="86472_0" index="0" disallow="pedestrian tram rail_urban rail rail_electric rail_fast ship" speed="36.11" length="68.50" width="3.50" customShape="1" shape="-489.60,575.91 -484.82,562.07 -480.91,551.69 -476.06,540.04 -467.60,521.18 -463.75,512.52"/>
    </edge>
    <edge id="86473" from="45" to="44" priority="3" type="highway.residential" spreadType="center" length="68.51">
        <lane id="86473_0" index="0" disallow="pedestrian tram rail_urban rail rail_electric rail_fast ship" speed="36.11" length="68.51" width="3.50" customShape="1" shape="-460.42,513.65 -464.36,522.50 -472.81,541.34 -477.63,552.92 -481.52,563.24 -486.29,577.04"/>
    </edge>
    <edge id="86476" from="44" to="48" priority="3" type="highway.residential" spreadType="center" length="4.93" shape="-486.77,578.45 -486.18,594.75">
        <lane id="86476_0" index="0" disallow="pedestrian tram rail_urban rail rail_electric rail_fast ship" speed="36.11" length="4.93" width="3.49" customShape="1" shape="-487.24,579.87 -488.78,584.55"/>
    </edge>
    <edge id="86478" from="50" to="48" priority="3" type="highway.residential" spreadType="center" length="0.20" shape="-493.57,610.56 -489.63,594.22">
        <lane id="86478_0" index="0" disallow="pedestrian tram rail_urban rail rail_electric rail_fast ship" speed="36.11" length="0.20" width="3.50" customShape="1" shape="-494.81,593.71 -494.81,593.51"/>
    </edge>
    <edge id="86479" from="48" to="50" priority="3" type="highway.residential" spreadType="center" length="0.20" shape="-486.23,595.04 -490.19,611.38">
        <lane id="86479_0" index="0" disallow="pedestrian tram rail_urban rail rail_electric rail_fast ship" speed="36.11" length="0.20" width="3.50" customShape="1" shape="-491.32,595.33 -491.31,595.53"/>
    </edge>
    <edge id="86481" from="35" to="50" priority="3" type="highway.residential" spreadType="center" length="70.01" shape="-492.75,698.04 -493.59,610.78">
        <lane id="86481_0" index="0" disallow="pedestrian tram rail_urban rail rail_electric rail_fast ship" speed="36.11" length="70.01" width="3.50" customShape="1" shape="-492.75,698.04 -494.01,628.04"/>
    </edge>
    <edge id="86482" from="50" to="23" priority="3" type="highway.residential" spreadType="center" length="70.00" shape="-490.09,610.74 -489.25,697.97">
        <lane id="86482_0" index="0" disallow="pedestrian tram rail_urban rail rail_electric rail_fast ship" speed="36.11" length="70.00" width="3.50" customShape="1" shape="-490.51,627.98 -489.25,697.97"/>
    </edge>
    <edge id="86490" from="41" to="50" priority="3" type="highway.residential" spreadType="center" length="16.07" shape="-512.80,576.76 -490.35,609.88">
        <lane id="86490_0" index="0" disallow="pedestrian tram rail_urban rail rail_electric rail_fast ship" speed="36.11" length="16.07" width="3.49" customShape="1" shape="-511.78,577.84 -501.63,588.62 -500.79,589.57"/>
    </edge>
    <edge id="86493" from="42" to="41" priority="3" type="highway.residential" spreadType="center" length="43.73">
        <lane id="86493_0" index="0" disallow="pedestrian tram rail_urban rail rail_electric rail_fast ship" speed="36.11" length="43.73" width="3.50" customShape="1" shape="-546.00,546.10 -538.96,551.95 -529.87,560.07 -520.65,568.81 -513.84,575.70"/>
    </edge>
    <edge id="86494" from="32" to="33" priority="3" type="highway.residential" spreadType="center" length="43.33">
        <lane id="86494_0" index="0" disallow="pedestrian tram rail_urban rail rail_electric rail_fast ship" speed="36.11" length="43.33" width="3.50" customShape="1" shape="-516.37,578.13 -523.10,571.30 -532.24,562.65 -541.25,554.60 -548.23,548.80"/>
    </edge>
    <edge id="86579" from="47" to="8" priority="3" type="highway.residential" spreadType="center" length="70.01" shape="-443.56,599.17 -358.73,620.88">
        <lane id="86579_0" index="0" disallow="pedestrian tram rail_urban rail rail_electric rail_fast ship" speed="36.11" length="70.01" width="3.50" customShape="1" shape="-427.63,608.98 -419.65,610.41 -402.15,613.10 -394.18,614.55 -380.86,617.60 -372.45,619.41 -365.95,620.44 -360.91,620.92 -358.73,620.88"/>
    </edge>
    <edge id="86580" from="34" to="47" priority="3" type="highway.residential" spreadType="center" length="70.00" shape="-359.38,624.39 -444.43,602.56">
        <lane id="86580_0" index="0" disallow="pedestrian tram rail_urban rail rail_electric rail_fast ship" speed="36.11" length="70.00" width="3.50" customShape="1" shape="-359.38,624.39 -361.42,624.40 -366.60,623.89 -373.18,622.83 -381.63,621.01 -394.90,617.97 -402.79,616.54 -420.27,613.85 -428.27,612.42"/>
    </edge>
    <edge id="86582" from="48" to="47" priority="3" type="highway.residential" spreadType="center" length="17.63" shape="-487.75,592.89 -443.72,599.14">
        <lane id="86582_0" index="0" disallow="pedestrian tram rail_urban rail rail_electric rail_fast ship" speed="36.11" length="17.63" width="3.50" customShape="1" shape="-478.33,595.09 -475.64,596.44 -472.00,598.08 -466.36,600.07 -461.88,601.30"/>
    </edge>
    <edge id="86583" from="47" to="48" priority="3" type="highway.residential" spreadType="center" length="18.33" shape="-444.21,602.61 -488.24,596.35">
        <lane id="86583_0" index="0" disallow="pedestrian tram rail_urban rail rail_electric rail_fast ship" speed="36.11" length="18.33" width="3.50" customShape="1" shape="-462.80,604.67 -467.37,603.42 -473.28,601.33 -477.12,599.61 -479.90,598.21"/>
    </edge>
    <edge id="86630" from="49" to="18" priority="3" type="highway.residential" spreadType="center" length="17.05" shape="-432.55,573.39 -426.99,537.66">
        <lane id="86630_0" index="0" disallow="pedestrian tram rail_urban rail rail_electric rail_fast ship" speed="36.11" length="17.05" width="3.50" customShape="1" shape="-433.92,553.24 -432.94,550.81 -426.99,537.66"/>
    </edge>
    <edge id="86631" from="37" to="49" priority="3" type="highway.residential" spreadType="center" length="16.92" shape="-423.79,539.09 -429.10,573.93">
        <lane id="86631_0" index="0" disallow="pedestrian tram rail_urban rail rail_electric rail_fast ship" speed="36.11" length="16.92" width="3.50" customShape="1" shape="-423.79,539.09 -429.70,552.14 -430.67,554.55"/>
    </edge>
    <edge id="86633" from="47" to="49" priority="3" type="highway.residential" spreadType="center" length="0.33" shape="-445.54,600.12 -432.34,572.73">
        <lane id="86633_0" index="0" disallow="pedestrian tram rail_urban rail rail_electric rail_fast ship" speed="36.11" length="0.33" width="3.50" customShape="1" shape="-443.24,588.59 -443.20,588.43 -443.17,588.27"/>
    </edge>
    <edge id="86634" from="49" to="47" priority="3" type="highway.residential" spreadType="center" length="0.29" shape="-429.20,574.25 -442.39,601.63">
        <lane id="86634_0" index="0" disallow="pedestrian tram rail_urban rail rail_electric rail_fast ship" speed="36.11" length="0.29" width="3.50" customShape="1" shape="-439.76,589.05 -439.79,589.18 -439.82,589.33"/>
    </edge>
    <edge id="86649" from="36" to="49" priority="3" type="highway.residential" spreadType="center" length="70.01" shape="-349.49,586.51 -431.09,575.31">
        <lane id="86649_0" index="0" disallow="pedestrian tram rail_urban rail rail_electric rail_fast ship" speed="36.11" length="70.01" width="3.50" customShape="1" shape="-349.49,586.51 -350.89,586.18 -355.86,585.39 -361.38,584.88 -366.92,584.67 -379.02,584.79 -385.06,584.59 -391.59,583.97 -411.56,581.23 -419.04,579.94"/>
    </edge>
    <edge id="86650" from="49" to="19" priority="3" type="highway.residential" spreadType="center" length="70.00" shape="-430.61,571.84 -348.82,583.07">
        <lane id="86650_0" index="0" disallow="pedestrian tram rail_urban rail rail_electric rail_fast ship" speed="36.11" length="70.00" width="3.50" customShape="1" shape="-418.36,576.50 -410.92,577.79 -390.94,580.53 -384.49,581.12 -378.50,581.29 -366.35,581.18 -360.70,581.42 -355.06,581.96 -349.95,582.80 -348.82,583.07"/>
    </edge>
    <edge id="86814" from="24" to="25" priority="3" type="highway.residential" spreadType="center" length="68.51">
        <lane id="86814_0" index="0" disallow="pedestrian tram rail_urban rail rail_electric rail_fast ship" speed="36.11" length="68.51" width="3.50" customShape="1" shape="-471.05,637.18 -467.56,643.25 -465.95,646.36 -463.92,651.47 -462.65,654.19 -461.55,655.85 -459.53,658.07 -456.92,660.41 -453.68,662.75 -449.83,665.08 -443.63,668.34 -438.66,670.69 -433.10,672.93 -426.47,675.21 -419.78,677.27"/>
    </edge>
    <edge id="86815" from="40" to="39" priority="3" type="highway.residential" spreadType="center" length="68.51">
        <lane id="86815_0" index="0" disallow="pedestrian tram rail_urban rail rail_electric rail_fast ship" speed="36.11" length="68.51" width="3.50" customShape="1" shape="-423.28,679.84 -428.44,678.25 -435.15,675.89 -440.82,673.56 -445.88,671.12 -452.18,667.77 -456.13,665.32 -459.49,662.82 -462.21,660.33 -464.36,657.93 -465.61,656.05 -467.01,653.15 -469.03,648.04 -470.58,645.03 -474.06,638.95"/>
    </edge>
    <edge id="86818" from="39" to="50" priority="3" type="highway.residential" spreadType="center" length="17.01" shape="-474.81,637.66 -493.32,611.73">
        <lane id="86818_0" index="0" disallow="pedestrian tram rail_urban rail rail_electric rail_fast ship" speed="36.11" length="17.01" width="3.50" customShape="1" shape="-475.58,636.38 -479.79,629.62 -483.35,624.46 -485.09,622.29"/>
    </edge>
    <edge id="87453" from="50" to="32" priority="3" type="highway.residential" spreadType="center" length="15.21" shape="-493.24,611.84 -515.32,579.19">
        <lane id="87453_0" index="0" disallow="pedestrian tram rail_urban rail rail_electric rail_fast ship" speed="36.11" length="15.21" width="3.50" customShape="1" shape="-503.88,591.35 -504.37,590.80 -514.30,580.27"/>
    </edge>
    <edge id="87520" from="50" to="24" priority="3" type="highway.residential" spreadType="center" length="17.69" shape="-490.47,609.70 -471.79,635.88">
        <lane id="87520_0" index="0" disallow="pedestrian tram rail_urban rail rail_electric rail_fast ship" speed="36.11" length="17.69" width="3.50" customShape="1" shape="-482.47,619.96 -480.59,622.32 -476.91,627.64 -472.56,634.60"/>
    </edge>
    <edge id="87689" from="48" to="26" priority="3" type="highway.residential" spreadType="center" length="5.64" shape="-489.64,594.84 -490.09,577.32">
        <lane id="87689_0" index="0" disallow="pedestrian tram rail_urban rail rail_electric rail_fast ship" speed="36.11" length="5.64" width="3.46" customShape="1" shape="-492.29,584.10 -492.16,583.64 -490.55,578.74"/>
    </edge>

    <junction id="18" type="dead_end" x="-426.99" y="537.66" incLanes="86630_0" intLanes="" shape="-428.58,536.94 -425.39,538.39" rightOfWay="edgePriority"/>
    <junction id="19" type="dead_end" x="-348.82" y="583.07" incLanes="86650_0" intLanes="" shape="-348.42,581.36 -349.22,584.77" rightOfWay="edgePriority"/>
    <junction id="23" type="dead_end" x="-489.25" y="697.97" incLanes="86482_0" intLanes="" shape="-487.50,697.94 -491.00,698.00" rightOfWay="edgePriority"/>
    <junction id="24" type="priority" x="-471.79" y="635.88" incLanes="87520_0" intLanes=":24_0_0" shape="-472.57,638.05 -469.53,636.31 -471.06,633.71 -474.06,635.50" rightOfWay="edgePriority">
        <request index="0" response="0" foes="0" cont="0"/>
    </junction>
    <junction id="25" type="dead_end" x="-419.78" y="677.27" incLanes="86814_0" intLanes="" shape="-419.27,675.60 -420.30,678.94" rightOfWay="edgePriority"/>
    <junction id="26" type="priority" x="-490.09" y="577.32" incLanes="87689_0" intLanes=":26_0_0" shape="-492.20,578.20 -488.91,579.28 -487.95,576.48 -491.25,575.34" rightOfWay="edgePriority">
        <request index="0" response="0" foes="0" cont="0"/>
    </junction>
    <junction id="27" type="dead_end" x="-463.75" y="512.52" incLanes="86472_0" intLanes="" shape="-465.35,511.81 -462.15,513.23" rightOfWay="edgePriority"/>
    <junction id="32" type="priority" x="-515.32" y="579.19" incLanes="87453_0" intLanes=":32_0_0" shape="-515.57,581.47 -513.03,579.07 -515.12,576.90 -517.61,579.36" rightOfWay="edgePriority">
        <request index="0" response="0" foes="0" cont="0"/>
    </junction>
    <junction id="33" type="dead_end" x="-548.23" y="548.80" incLanes="86494_0" intLanes="" shape="-549.35,550.14 -547.11,547.45" rightOfWay="edgePriority"/>
    <junction id="34" type="dead_end" x="-359.38" y="624.39" incLanes="" intLanes="" shape="-359.39,622.64 -359.37,626.14" rightOfWay="edgePriority"/>
    <junction id="35" type="dead_end" x="-492.75" y="698.04" incLanes="" intLanes="" shape="-491.00,698.01 -494.50,698.08" rightOfWay="edgePriority"/>
    <junction id="36" type="dead_end" x="-349.49" y="586.51" incLanes="" intLanes="" shape="-349.09,584.80 -349.89,588.21" rightOfWay="edgePriority"/>
    <junction id="37" type="dead_end" x="-423.79" y="539.09" incLanes="" intLanes="" shape="-425.38,538.37 -422.20,539.81" rightOfWay="edgePriority"/>