<routes>
	<vehicle depart="0.1" departLane="0" departPos="29.853530691566156" departSpeed="0.014685458" id="321" type="bus">
		<route edges=":85_3 203"/>
	</vehicle>
	<vehicle depart="0.1" departLane="0" departPos="30.23842567384314" departSpeed="0.35889422" id="320" type="passenger">
		<route edges="202 289"/>
	</vehicle>
	<vehicle depart="0.1" departLane="0" departPos="19.062652956673983" departSpeed="1.7545545" id="325" type="passenger">
		<route edges="202 289"/>
	</vehicle>
	<vehicle depart="0.1" departLane="0" departPos="10.357150290807063" departSpeed="1.2904929" id="327" type="passenger">
		<route edges="202 289"/>
	</vehicle>
	<vehicle depart="0.1" departLane="0" departPos="2.5" departSpeed="3.3216551" id="334" type="passenger">
		<route edges=":82_3 288"/>
	</vehicle>
	<vehicle depart="0.1" departLane="0" departPos="2.5" departSpeed="0.86736672" id="341" type="passenger">
		<route edges="202 289"/>
	</vehicle>
</routes>
