<!-- generated on Tue Feb  9 22:03:05 2021 by Eclipse SUMO netconvert Version 1.8.0
<configuration xmlns:xsi="http://www.w3.org/2001/XMLSchema-instance" xsi:noNamespaceSchemaLocation="http://sumo.dlr.de/xsd/netconvertConfiguration.xsd">

    <input>
        <node-files value="./converted_scenarios/scenario-factory/DEU_Ibbenbueren-4_2_I-1-1/DEU_Ibbenbueren-4_2_I-1-1.nod.xml"/>
        <edge-files value="./converted_scenarios/scenario-factory/DEU_Ibbenbueren-4_2_I-1-1/DEU_Ibbenbueren-4_2_I-1-1.edg.xml"/>
        <connection-files value="./converted_scenarios/scenario-factory/DEU_Ibbenbueren-4_2_I-1-1/DEU_Ibbenbueren-4_2_I-1-1.con.xml"/>
        <tllogic-files value="./converted_scenarios/scenario-factory/DEU_Ibbenbueren-4_2_I-1-1/DEU_Ibbenbueren-4_2_I-1-1.tll.xml"/>
        <type-files value="/home/zen/commonroad-interactive-benchmarks/install/commonroad-map-tool/crmapconverter/sumo_map/templates/DEU.typ.xml"/>
    </input>

    <output>
        <output-file value="./converted_scenarios/scenario-factory/DEU_Ibbenbueren-4_2_I-1-1/DEU_Ibbenbueren-4_2_I-1-1.net.xml"/>
    </output>

    <processing>
        <geometry.remove.keep-edges.explicit value="true"/>
        <geometry.avoid-overlap value="true"/>
        <offset.disable-normalization value="true"/>
    </processing>

    <junctions>
        <no-turnarounds value="true"/>
        <junctions.internal-link-detail value="20"/>
    </junctions>

    <report>
        <aggregate-warnings value="5"/>
    </report>

    <random_number>
        <seed value="1234"/>
    </random_number>

</configuration>
--><net xmlns:xsi="http://www.w3.org/2001/XMLSchema-instance" version="1.6" junctionCornerDetail="5" junctionLinkDetail="20" limitTurnSpeed="5.50" xsi:noNamespaceSchemaLocation="http://sumo.dlr.de/xsd/net_file.xsd">

    <location netOffset="0.00,0.00" convBoundary="29.23,-336.39,239.95,-83.60" origBoundary="29.23,-336.39,239.95,-83.60" projParameter="!"/>

    <type id="highway.bridleway" priority="1" speed="2.78" allow="pedestrian" oneway="1" width="2.00"/>
    <type id="highway.bus_guideway" priority="1" speed="27.78" allow="bus" oneway="1"/>
    <type id="highway.cycleway" priority="1" speed="8.33" allow="bicycle" oneway="0" width="1.00"/>
    <type id="highway.footway" priority="1" speed="2.78" allow="pedestrian" oneway="1" width="2.00"/>
    <type id="highway.ford" priority="1" speed="2.78" allow="army" oneway="0"/>
    <type id="highway.living_street" priority="2" speed="2.78" disallow="tram rail_urban rail rail_electric rail_fast ship" oneway="0"/>
    <type id="highway.motorway" priority="14" speed="39.44" allow="private emergency authority army vip passenger hov taxi bus coach delivery truck trailer motorcycle evehicle custom1 custom2" oneway="1"/>
    <type id="highway.motorway_link" priority="9" speed="22.22" allow="private emergency authority army vip passenger hov taxi bus coach delivery truck trailer motorcycle evehicle custom1 custom2" oneway="1"/>
    <type id="highway.path" priority="1" speed="2.78" allow="pedestrian bicycle" oneway="0" width="2.00"/>
    <type id="highway.pedestrian" priority="1" speed="2.78" allow="pedestrian" oneway="1" width="2.00"/>
    <type id="highway.primary" priority="12" speed="27.78" disallow="pedestrian tram rail_urban rail rail_electric rail_fast ship" oneway="0"/>
    <type id="highway.primary_link" priority="7" speed="22.22" disallow="pedestrian tram rail_urban rail rail_electric rail_fast ship" oneway="0"/>
    <type id="highway.raceway" priority="15" speed="83.33" allow="vip" oneway="0"/>
    <type id="highway.residential" priority="3" speed="13.89" disallow="pedestrian tram rail_urban rail rail_electric rail_fast ship" oneway="0"/>
    <type id="highway.secondary" priority="11" speed="27.78" disallow="pedestrian tram rail_urban rail rail_electric rail_fast ship" oneway="0"/>
    <type id="highway.secondary_link" priority="6" speed="22.22" disallow="pedestrian tram rail_urban rail rail_electric rail_fast ship" oneway="0"/>
    <type id="highway.service" priority="1" speed="5.56" allow="pedestrian delivery bicycle" oneway="0"/>
    <type id="highway.stairs" priority="1" speed="1.39" allow="pedestrian" oneway="1" width="2.00"/>
    <type id="highway.step" priority="1" speed="1.39" allow="pedestrian" oneway="1" width="2.00"/>
    <type id="highway.steps" priority="1" speed="1.39" allow="pedestrian" oneway="1" width="2.00"/>
    <type id="highway.tertiary" priority="10" speed="22.22" disallow="pedestrian tram rail_urban rail rail_electric rail_fast ship" oneway="0"/>
    <type id="highway.tertiary_link" priority="5" speed="22.22" disallow="pedestrian tram rail_urban rail rail_electric rail_fast ship" oneway="0"/>
    <type id="highway.track" priority="1" speed="5.56" allow="pedestrian motorcycle moped bicycle" oneway="0"/>
    <type id="highway.trunk" priority="13" speed="27.78" disallow="pedestrian bicycle tram rail_urban rail rail_electric rail_fast ship" oneway="0"/>
    <type id="highway.trunk_link" priority="8" speed="22.22" disallow="pedestrian bicycle tram rail_urban rail rail_electric rail_fast ship" oneway="0"/>
    <type id="highway.unclassified" priority="4" speed="13.89" disallow="pedestrian tram rail_urban rail rail_electric rail_fast ship" oneway="0"/>
    <type id="highway.unsurfaced" priority="1" speed="8.33" disallow="tram rail_urban rail rail_electric rail_fast ship" oneway="0"/>
    <type id="railway.highspeed" priority="21" speed="69.44" allow="rail_fast" oneway="1"/>
    <type id="railway.light_rail" priority="19" speed="27.78" allow="rail_urban" oneway="1"/>
    <type id="railway.preserved" priority="16" speed="27.78" allow="rail" oneway="1"/>
    <type id="railway.rail" priority="20" speed="44.44" allow="rail" oneway="1"/>
    <type id="railway.subway" priority="18" speed="27.78" allow="rail_urban" oneway="1"/>
    <type id="railway.tram" priority="17" speed="13.89" allow="tram" oneway="1"/>

    <edge id=":85_0" function="internal">
        <lane id=":85_0_0" index="0" disallow="pedestrian tram rail_urban rail rail_electric rail_fast ship" speed="36.11" length="37.85" width="3.50" shape="133.48,-200.25 117.57,-193.16 98.86,-184.95"/>
    </edge>
    <edge id=":85_1" function="internal">
        <lane id=":85_1_0" index="0" disallow="pedestrian tram rail_urban rail rail_electric rail_fast ship" speed="11.94" length="33.74" width="3.50" shape="133.48,-200.25 130.94,-199.25 128.36,-198.47 125.70,-197.99 123.01,-197.86 121.67,-197.96 120.34,-198.17 119.03,-198.51 117.76,-198.97 116.55,-199.55 115.39,-200.24 114.30,-201.03 113.28,-201.91 111.44,-203.88 109.87,-206.07 108.52,-208.40 106.84,-212.09"/>
    </edge>
    <edge id=":85_2" function="internal">
        <lane id=":85_2_0" index="0" disallow="pedestrian tram rail_urban rail rail_electric rail_fast ship" speed="10.90" length="28.01" width="3.49" shape="110.09,-213.39 111.55,-210.16 112.70,-208.18 114.02,-206.34 115.55,-204.68 116.35,-203.98 117.23,-203.34 118.14,-202.79 119.10,-202.33 120.10,-201.96 121.13,-201.69 122.19,-201.52 123.24,-201.43 125.47,-201.53 127.68,-201.93 129.88,-202.59 132.06,-203.45"/>
    </edge>
    <edge id=":85_3" function="internal">
        <lane id=":85_3_0" index="0" disallow="pedestrian tram rail_urban rail rail_electric rail_fast ship" speed="12.40" length="34.78" width="3.50" shape="110.09,-213.39 110.55,-212.18 111.63,-208.63 112.13,-206.13 112.37,-203.57 112.31,-200.97 111.89,-198.40 111.52,-197.09 111.05,-195.84 110.48,-194.64 109.80,-193.46 108.24,-191.38 106.39,-189.53 104.36,-187.94 102.19,-186.58 98.86,-184.95"/>
    </edge>
    <edge id=":85_4" function="internal">
        <lane id=":85_4_0" index="0" disallow="pedestrian tram rail_urban rail rail_electric rail_fast ship" speed="11.42" length="29.32" width="3.50" shape="97.46,-188.15 100.38,-189.59 102.22,-190.74 103.93,-192.08 105.46,-193.62 106.75,-195.36 107.29,-196.30 107.76,-197.29 108.13,-198.30 108.43,-199.35 108.77,-201.49 108.82,-203.66 108.61,-205.82 108.18,-207.95 107.23,-211.07 106.84,-212.09"/>
    </edge>
    <edge id=":85_5" function="internal">
        <lane id=":85_5_0" index="0" disallow="pedestrian tram rail_urban rail rail_electric rail_fast ship" speed="36.11" length="37.83" width="3.49" shape="97.46,-188.15 116.17,-196.37 132.06,-203.45"/>
    </edge>
    <edge id=":86_0" function="internal">
        <lane id=":86_0_0" index="0" disallow="pedestrian tram rail_urban rail rail_electric rail_fast ship" speed="6.59" length="12.44" width="3.50" shape="154.94,-217.87 154.00,-218.83 153.03,-219.66 152.04,-220.34 151.08,-220.78 150.19,-220.94 149.38,-220.76 148.61,-220.24 147.88,-219.44 147.21,-218.43 146.62,-217.29 146.10,-216.08"/>
    </edge>
    <edge id=":86_1" function="internal">
        <lane id=":86_1_0" index="0" disallow="pedestrian tram rail_urban rail rail_electric rail_fast ship" speed="36.11" length="21.03" width="3.50" shape="154.94,-217.87 151.30,-222.07 148.62,-225.59 146.20,-229.29 144.09,-233.18 143.18,-235.19"/>
    </edge>
    <edge id=":86_2" function="internal">
        <lane id=":86_2_0" index="0" disallow="pedestrian tram rail_urban rail rail_electric rail_fast ship" speed="36.11" length="19.86" width="3.50" shape="146.38,-236.59 147.24,-234.70 149.23,-231.05 151.51,-227.57 154.04,-224.24 157.51,-220.26"/>
    </edge>
    <edge id=":86_3" function="internal">
        <lane id=":86_3_0" index="0" disallow="pedestrian tram rail_urban rail rail_electric rail_fast ship" speed="15.18" length="21.05" width="3.50" shape="146.38,-236.59 147.21,-234.35 147.80,-232.07 148.17,-229.74 148.31,-227.39 148.24,-225.05 147.95,-222.71 147.20,-219.34 146.10,-216.08"/>
    </edge>
    <edge id=":86_4" function="internal">
        <lane id=":86_4_0" index="0" disallow="pedestrian tram rail_urban rail rail_electric rail_fast ship" speed="14.10" length="18.34" width="3.50" shape="142.83,-217.32 143.81,-220.23 144.48,-223.21 144.74,-225.23 144.81,-227.27 144.70,-229.30 144.39,-231.31 143.88,-233.28 143.18,-235.19"/>
    </edge>
    <edge id=":86_5" function="internal">
        <lane id=":86_5_0" index="0" disallow="pedestrian tram rail_urban rail rail_electric rail_fast ship" speed="8.18" length="19.90" width="3.50" shape="142.83,-217.32 143.55,-219.00 144.38,-220.61 145.39,-222.11 146.63,-223.42 148.16,-224.37 149.91,-224.75 151.69,-224.48 153.34,-223.75 154.84,-222.74 156.22,-221.56 157.51,-220.26"/>
    </edge>
    <edge id=":87_0" function="internal">
        <lane id=":87_0_0" index="0" disallow="pedestrian tram rail_urban rail rail_electric rail_fast ship" speed="6.00" length="6.42" width="3.48" shape="156.19,-202.18 155.66,-203.18 155.06,-204.08 154.41,-204.80 153.76,-205.27 153.17,-205.49 151.39,-205.20"/>
    </edge>
    <edge id=":87_1" function="internal">
        <lane id=":87_1_0" index="0" disallow="pedestrian tram rail_urban rail rail_electric rail_fast ship" speed="9.12" length="10.26" width="3.49" shape="156.19,-202.18 155.62,-203.49 155.15,-204.86 154.81,-206.33 154.70,-207.91 154.90,-209.56 155.97,-211.96"/>
    </edge>
    <edge id=":87_2" function="internal">
        <lane id=":87_2_0" index="0" disallow="pedestrian tram rail_urban rail rail_electric rail_fast ship" speed="6.96" length="5.67" width="3.50" shape="158.36,-209.14 158.22,-208.52 158.17,-207.52 158.32,-206.52 158.59,-205.55 158.94,-204.60 159.35,-203.68"/>
    </edge>
    <edge id=":87_3" function="internal">
        <lane id=":87_3_0" index="0" disallow="pedestrian tram rail_urban rail rail_electric rail_fast ship" speed="9.68" length="8.24" width="3.48" shape="158.36,-209.14 157.42,-207.99 155.99,-206.80 154.31,-205.98 151.39,-205.20"/>
    </edge>
    <edge id=":87_4" function="internal">
        <lane id=":87_4_0" index="0" disallow="pedestrian tram rail_urban rail rail_electric rail_fast ship" speed="8.14" length="6.60" width="3.49" shape="150.60,-208.69 153.03,-209.23 154.06,-209.72 154.90,-210.41 155.97,-211.96"/>
    </edge>
    <edge id=":87_5" function="internal">
        <lane id=":87_5_0" index="0" disallow="pedestrian tram rail_urban rail rail_electric rail_fast ship" speed="7.97" length="11.16" width="3.50" shape="150.60,-208.69 153.52,-208.99 155.10,-208.56 156.49,-207.67 157.63,-206.49 158.57,-205.14 159.35,-203.68"/>
    </edge>
    <edge id=":88_0" function="internal">
        <lane id=":88_0_0" index="0" disallow="pedestrian tram rail_urban rail rail_electric rail_fast ship" speed="36.11" length="19.27" width="3.50" shape="152.25,-205.43 146.96,-204.35 140.68,-202.78 136.61,-201.49 133.70,-200.35"/>
    </edge>
    <edge id=":88_1" function="internal">
        <lane id=":88_1_0" index="0" disallow="pedestrian tram rail_urban rail rail_electric rail_fast ship" speed="7.91" length="20.40" width="3.50" shape="152.25,-205.43 150.63,-205.18 148.95,-205.05 147.17,-205.11 145.30,-205.51 143.44,-206.54 142.07,-208.27 141.48,-210.28 141.47,-212.17 141.75,-213.91 142.19,-215.53 142.73,-217.06"/>
    </edge>
    <edge id=":88_2" function="internal">
        <lane id=":88_2_0" index="0" disallow="pedestrian tram rail_urban rail rail_electric rail_fast ship" speed="6.46" length="12.46" width="3.49" shape="146.00,-215.80 145.62,-214.74 145.32,-213.64 145.13,-212.52 145.13,-211.39 145.42,-210.30 146.11,-209.41 147.11,-208.87 148.22,-208.64 149.35,-208.61 150.49,-208.70 151.61,-208.87"/>
    </edge>
    <edge id=":88_3" function="internal">
        <lane id=":88_3_0" index="0" disallow="pedestrian tram rail_urban rail rail_electric rail_fast ship" speed="15.01" length="20.24" width="3.50" shape="146.00,-215.80 144.64,-212.63 143.03,-209.53 141.10,-206.59 139.58,-204.72 137.84,-203.02 135.87,-201.54 133.70,-200.35"/>
    </edge>
    <edge id=":88_4" function="internal">
        <lane id=":88_4_0" index="0" disallow="pedestrian tram rail_urban rail rail_electric rail_fast ship" speed="13.74" length="17.54" width="3.50" shape="132.24,-203.53 134.07,-204.53 135.71,-205.79 137.16,-207.26 138.45,-208.87 140.12,-211.48 141.53,-214.23 142.73,-217.06"/>
    </edge>
    <edge id=":88_5" function="internal">
        <lane id=":88_5_0" index="0" disallow="pedestrian tram rail_urban rail rail_electric rail_fast ship" speed="36.11" length="20.13" width="3.49" shape="132.24,-203.53 135.38,-204.77 139.64,-206.12 146.14,-207.75 151.61,-208.87"/>
    </edge>
    <edge id=":89_0" function="internal">
        <lane id=":89_0_0" index="0" disallow="pedestrian tram rail_urban rail rail_electric rail_fast ship" speed="11.36" length="12.57" width="3.50" shape="131.27,-261.56 129.76,-264.33 127.97,-266.93 125.89,-269.31 123.93,-271.08 123.56,-271.35"/>
    </edge>
    <edge id=":89_1" function="internal">
        <lane id=":89_1_0" index="0" disallow="pedestrian tram rail_urban rail rail_electric rail_fast ship" speed="11.87" length="12.43" width="3.50" shape="131.72,-275.10 131.70,-274.72 131.88,-271.58 132.45,-268.49 133.38,-265.49 134.42,-263.08"/>
    </edge>
    <edge id=":89_2" function="internal">
        <lane id=":89_2_0" index="0" disallow="pedestrian tram rail_urban rail rail_electric rail_fast ship" speed="4.66" length="3.99" width="3.50" shape="128.22,-276.28 127.35,-275.67 125.77,-274.93 124.63,-274.62"/>
    </edge>
    <edge id=":90_0" function="internal">
        <lane id=":90_0_0" index="0" disallow="pedestrian tram rail_urban rail rail_electric rail_fast ship" speed="13.42" length="12.42" width="3.47" shape="168.67,-216.03 165.75,-214.78 162.97,-213.34 161.29,-212.26 159.78,-211.01 159.19,-210.39 158.47,-209.31"/>
    </edge>
    <edge id=":90_1" function="internal">
        <lane id=":90_1_0" index="0" disallow="pedestrian tram rail_urban rail rail_electric rail_fast ship" speed="9.68" length="15.29" width="3.50" shape="168.67,-216.03 166.10,-215.18 164.73,-214.88 163.33,-214.69 161.87,-214.66 160.40,-214.82 158.93,-215.20 157.53,-215.81 156.25,-216.66 154.63,-218.21"/>
    </edge>
    <edge id=":90_2" function="internal">
        <lane id=":90_2_0" index="0" disallow="pedestrian tram rail_urban rail rail_electric rail_fast ship" speed="8.34" length="11.10" width="3.50" shape="157.18,-220.60 158.45,-219.38 159.32,-218.82 160.29,-218.44 161.30,-218.22 162.33,-218.15 163.37,-218.21 164.39,-218.37 165.40,-218.62 167.37,-219.28"/>
    </edge>
    <edge id=":90_3" function="internal">
        <lane id=":90_3_0" index="0" disallow="pedestrian tram rail_urban rail rail_electric rail_fast ship" speed="8.46" length="12.45" width="3.47" shape="157.18,-220.60 158.64,-218.86 159.43,-217.47 159.95,-215.89 160.11,-214.22 159.90,-212.58 159.40,-211.07 158.47,-209.31"/>
    </edge>
    <edge id=":90_4" function="internal">
        <lane id=":90_4_0" index="0" disallow="pedestrian tram rail_urban rail rail_electric rail_fast ship" speed="6.40" length="6.72" width="3.50" shape="156.08,-212.13 156.15,-212.37 156.45,-213.28 156.58,-214.23 156.49,-215.19 156.19,-216.10 155.71,-216.94 154.63,-218.21"/>
    </edge>
    <edge id=":90_5" function="internal">
        <lane id=":90_5_0" index="0" disallow="pedestrian tram rail_urban rail rail_electric rail_fast ship" speed="14.08" length="13.51" width="3.50" shape="156.08,-212.13 156.39,-212.48 157.18,-213.36 158.98,-214.90 160.96,-216.21 164.10,-217.87 167.37,-219.28"/>
    </edge>
    <edge id=":91_0" function="internal">
        <lane id=":91_0_0" index="0" disallow="pedestrian tram rail_urban rail rail_electric rail_fast ship" speed="36.11" length="39.35" width="3.50" shape="68.07,-154.98 67.15,-157.98 66.27,-162.02 65.57,-167.15 64.48,-179.52 63.85,-183.61 63.16,-186.64 62.23,-189.60 61.04,-192.47 60.59,-193.39"/>
    </edge>
    <edge id=":91_1" function="internal">
        <lane id=":91_1_0" index="0" disallow="pedestrian tram rail_urban rail rail_electric rail_fast ship" speed="12.97" length="37.10" width="3.50" shape="68.07,-154.98 67.34,-157.47 66.89,-160.02 66.79,-162.64 67.08,-165.24 67.39,-166.57 67.81,-167.86 68.90,-170.23 70.32,-172.42 71.99,-174.38 73.83,-176.14 75.81,-177.71 78.91,-179.76 82.16,-181.52 85.50,-183.06"/>
    </edge>
    <edge id=":91_2" function="internal">
        <lane id=":91_2_0" index="0" disallow="pedestrian tram rail_urban rail rail_electric rail_fast ship" speed="12.03" length="31.77" width="3.50" shape="86.88,-179.84 83.88,-178.46 80.98,-176.91 78.23,-175.12 76.50,-173.78 74.89,-172.30 73.45,-170.65 72.21,-168.85 71.25,-166.88 70.89,-165.85 70.62,-164.79 70.33,-162.62 70.38,-160.43 70.75,-158.28 71.37,-156.16"/>
    </edge>
    <edge id=":91_3" function="internal">
        <lane id=":91_3_0" index="0" disallow="pedestrian tram rail_urban rail rail_electric rail_fast ship" speed="12.45" length="33.23" width="3.50" shape="86.88,-179.84 84.46,-178.96 81.97,-178.38 79.43,-178.16 78.15,-178.20 76.88,-178.35 75.63,-178.61 74.41,-178.98 73.22,-179.45 70.98,-180.67 68.92,-182.19 67.06,-183.94 65.37,-185.86 63.14,-188.97 61.18,-192.27 60.59,-193.39"/>
    </edge>
    <edge id=":91_4" function="internal">
        <lane id=":91_4_0" index="0" disallow="pedestrian tram rail_urban rail rail_electric rail_fast ship" speed="11.46" length="27.99" width="3.50" shape="63.67,-195.06 64.22,-194.01 65.95,-191.07 67.90,-188.33 69.33,-186.67 70.89,-185.16 72.58,-183.87 74.43,-182.83 75.35,-182.44 76.32,-182.13 77.32,-181.90 78.33,-181.76 79.31,-181.70 81.41,-181.85 83.47,-182.32 85.50,-183.06"/>
    </edge>
    <edge id=":91_5" function="internal">
        <lane id=":91_5_0" index="0" disallow="pedestrian tram rail_urban rail rail_electric rail_fast ship" speed="36.11" length="39.88" width="3.50" shape="63.67,-195.06 64.19,-193.99 65.44,-190.98 66.42,-187.86 67.15,-184.69 67.81,-180.46 68.94,-168.00 69.62,-162.95 70.48,-159.02 71.37,-156.16"/>
    </edge>
    <edge id=":92_0" function="internal">
        <lane id=":92_0_0" index="0" disallow="pedestrian tram rail_urban rail rail_electric rail_fast ship" speed="11.01" length="28.69" width="3.50" shape="205.90,-133.09 204.97,-133.65 202.97,-134.62 200.89,-135.29 199.89,-135.48 198.85,-135.57 197.81,-135.57 196.78,-135.46 195.77,-135.24 194.77,-134.92 193.80,-134.51 192.85,-134.01 191.96,-133.45 190.19,-132.08 188.58,-130.50 187.10,-128.78 185.05,-125.95 183.21,-122.93"/>
    </edge>
    <edge id=":92_1" function="internal">
        <lane id=":92_1_0" index="0" disallow="pedestrian tram rail_urban rail rail_electric rail_fast ship" speed="27.47" length="33.58" width="3.49" shape="205.90,-133.09 193.20,-141.35 186.09,-146.29 181.80,-149.59 180.18,-151.02 179.43,-151.80 178.76,-152.70"/>
    </edge>
    <edge id=":92_2" function="internal">
        <lane id=":92_2_0" index="0" disallow="pedestrian tram rail_urban rail rail_electric rail_fast ship" speed="26.58" length="31.75" width="3.50" shape="181.89,-154.31 182.26,-153.84 182.89,-153.22 184.40,-151.92 188.53,-148.80 195.43,-144.05 207.78,-136.04"/>
    </edge>
    <edge id=":92_3" function="internal">
        <lane id=":92_3_0" index="0" disallow="pedestrian tram rail_urban rail rail_electric rail_fast ship" speed="15.68" length="32.95" width="3.50" shape="181.86,-154.30 183.45,-151.22 184.82,-147.96 185.89,-144.59 186.62,-141.13 186.95,-137.62 186.92,-135.26 186.69,-132.92 186.26,-130.60 185.62,-128.33 184.31,-125.05 183.21,-122.93"/>
    </edge>
    <edge id=":92_4" function="internal">
        <lane id=":92_4_0" index="0" disallow="pedestrian tram rail_urban rail rail_electric rail_fast ship" speed="14.82" length="29.47" width="3.49" shape="180.17,-124.66 181.14,-126.52 182.30,-129.46 182.85,-131.44 183.23,-133.48 183.42,-135.55 183.44,-137.61 183.13,-140.74 182.47,-143.83 181.49,-146.85 180.25,-149.80 178.76,-152.70"/>
    </edge>
    <edge id=":92_5" function="internal">
        <lane id=":92_5_0" index="0" disallow="pedestrian tram rail_urban rail rail_electric rail_fast ship" speed="12.02" length="34.45" width="3.50" shape="180.17,-124.66 182.26,-128.07 184.60,-131.28 186.34,-133.27 188.26,-135.10 190.37,-136.69 191.51,-137.37 192.69,-137.96 193.92,-138.45 195.19,-138.82 196.50,-139.06 197.81,-139.17 199.14,-139.14 200.45,-138.99 201.75,-138.73 204.26,-137.89 206.64,-136.72 207.78,-136.04"/>
    </edge>
    <edge id=":93_0" function="internal">
        <lane id=":93_0_0" index="0" disallow="pedestrian tram rail_urban rail rail_electric rail_fast ship" speed="16.34" length="36.33" width="3.50" shape="206.90,-227.41 205.36,-228.33 204.61,-228.32 203.73,-228.24 201.82,-227.91 197.90,-226.92 192.02,-225.05 184.24,-222.22 172.64,-217.63"/>
    </edge>
    <edge id=":93_1" function="internal">
        <lane id=":93_1_0" index="0" disallow="pedestrian tram rail_urban rail rail_electric rail_fast ship" speed="25.30" length="30.85" width="3.43" shape="206.90,-227.41 202.89,-229.90 199.15,-232.11 192.61,-236.01 189.82,-237.70 187.96,-238.83 186.12,-239.98 184.28,-241.15 182.47,-242.35 181.59,-242.99 180.77,-243.76"/>
    </edge>
    <edge id=":93_2" function="internal">
        <lane id=":93_2_0" index="0" disallow="pedestrian tram rail_urban rail rail_electric rail_fast ship" speed="23.26" length="29.20" width="3.48" shape="183.99,-245.13 184.37,-244.65 184.93,-244.05 186.34,-242.74 187.90,-241.54 189.58,-240.42 191.34,-239.38 194.09,-237.93 200.79,-234.74 204.65,-232.83 208.91,-230.27"/>
    </edge>
    <edge id=":93_3" function="internal">
        <lane id=":93_3_0" index="0" disallow="pedestrian tram rail_urban rail rail_electric rail_fast ship" speed="12.13" length="34.23" width="3.50" shape="183.96,-245.11 185.36,-241.38 186.00,-238.83 186.37,-236.23 186.42,-233.60 186.29,-232.29 186.06,-231.00 185.72,-229.73 185.27,-228.49 184.72,-227.30 184.06,-226.16 183.30,-225.09 181.55,-223.13 179.55,-221.43 177.36,-219.96 175.05,-218.71 172.64,-217.63"/>
    </edge>
    <edge id=":93_4" function="internal">
        <lane id=":93_4_0" index="0" disallow="pedestrian tram rail_urban rail rail_electric rail_fast ship" speed="11.11" length="28.61" width="3.43" shape="171.31,-220.86 173.41,-221.80 175.40,-222.88 177.25,-224.12 178.92,-225.54 180.38,-227.17 180.96,-228.01 181.49,-228.92 181.94,-229.87 182.30,-230.85 182.57,-231.87 182.76,-232.91 182.86,-233.95 182.82,-236.15 182.51,-238.33 181.96,-240.49 180.77,-243.76"/>
    </edge>
    <edge id=":93_5" function="internal">
        <lane id=":93_5_0" index="0" disallow="pedestrian tram rail_urban rail rail_electric rail_fast ship" speed="17.40" length="39.76" width="3.48" shape="171.31,-220.86 183.46,-225.65 191.65,-228.55 197.90,-230.43 202.14,-231.39 204.29,-231.67 205.38,-231.70 206.46,-231.61 208.91,-230.27"/>
    </edge>
    <edge id=":94_0" function="internal">
        <lane id=":94_0_0" index="0" disallow="pedestrian tram rail_urban rail rail_electric rail_fast ship" speed="12.40" length="12.77" width="3.50" shape="107.01,-276.86 106.67,-276.88 103.56,-276.70 100.50,-276.17 97.50,-275.33 94.62,-274.20"/>
    </edge>
    <edge id=":94_1" function="internal">
        <lane id=":94_1_0" index="0" disallow="pedestrian tram rail_urban rail rail_electric rail_fast ship" speed="8.06" length="16.82" width="3.49" shape="107.93,-279.69 107.63,-279.96 106.43,-281.43 105.56,-283.11 105.08,-284.94 105.00,-286.83 105.25,-288.71 105.98,-291.13 107.03,-293.43 107.96,-295.08"/>
    </edge>
    <edge id=":94_2" function="internal">
        <lane id=":94_2_0" index="0" disallow="pedestrian tram rail_urban rail rail_electric rail_fast ship" speed="13.11" length="10.50" width="3.49" shape="93.17,-277.39 94.54,-278.15 96.56,-279.76 98.73,-281.98 100.77,-284.50"/>
    </edge>
    <edge id=":95_0" function="internal">
        <lane id=":95_0_0" index="0" disallow="pedestrian tram rail_urban rail rail_electric rail_fast ship" speed="11.54" length="12.12" width="3.50" shape="146.60,-299.36 143.84,-297.79 141.28,-295.91 139.34,-294.12 137.60,-292.13 137.32,-291.73"/>
    </edge>
    <edge id=":95_1" function="internal">
        <lane id=":95_1_0" index="0" disallow="pedestrian tram rail_urban rail rail_electric rail_fast ship" speed="11.28" length="10.76" width="3.50" shape="134.61,-300.23 134.95,-300.22 138.07,-300.41 140.63,-300.88 143.12,-301.65 145.03,-302.49"/>
    </edge>
    <edge id=":95_2" function="internal">
        <lane id=":95_2_0" index="0" disallow="pedestrian tram rail_urban rail rail_electric rail_fast ship" speed="4.16" length="3.07" width="3.50" shape="133.27,-295.61 133.77,-294.65 134.29,-292.96 134.32,-292.74"/>
    </edge>
    <edge id=":96_0" function="internal">
        <lane id=":96_0_0" index="0" disallow="pedestrian tram rail_urban rail rail_electric rail_fast ship" speed="13.37" length="17.24" width="3.50" shape="107.44,-314.91 109.06,-312.17 110.66,-310.08 112.48,-308.18 114.49,-306.50 117.13,-304.77 119.83,-303.43"/>
    </edge>
    <edge id=":96_1" function="internal">
        <lane id=":96_1_0" index="0" disallow="pedestrian tram rail_urban rail rail_electric rail_fast ship" speed="11.65" length="20.05" width="3.50" shape="109.32,-297.02 112.03,-299.86 112.27,-300.36 112.41,-300.90 112.36,-302.01 112.01,-303.06 111.18,-304.51 109.12,-307.14 105.87,-310.96 104.61,-312.80 104.35,-313.27"/>
    </edge>
    <edge id=":96_2" function="internal">
        <lane id=":96_2_0" index="0" disallow="pedestrian tram rail_urban rail rail_electric rail_fast ship" speed="8.51" length="11.94" width="3.50" shape="109.32,-297.02 113.03,-300.33 114.92,-301.38 116.96,-302.12 119.09,-302.49 119.56,-302.48"/>
    </edge>

    <edge id="32512" from="85" to="23" priority="3" type="highway.residential" spreadType="center" length="23.31" shape="111.53,-199.67 98.25,-233.76">
        <lane id="32512_0" index="0" disallow="pedestrian tram rail_urban rail rail_electric rail_fast ship" speed="36.11" length="23.31" width="3.50" customShape="1" shape="106.84,-212.09 102.55,-222.92 98.25,-233.76"/>
    </edge>
    <edge id="32513" from="44" to="85" priority="3" type="highway.residential" spreadType="center" length="23.31" shape="101.51,-235.05 114.79,-200.93">
        <lane id="32513_0" index="0" disallow="pedestrian tram rail_urban rail rail_electric rail_fast ship" speed="36.11" length="23.31" width="3.50" customShape="1" shape="101.51,-235.05 105.80,-224.21 110.10,-213.38"/>
    </edge>
    <edge id="32548" from="91" to="57" priority="3" type="highway.residential" spreadType="center" length="16.98" shape="71.20,-176.14 52.73,-208.44">
        <lane id="32548_0" index="0" disallow="pedestrian tram rail_urban rail rail_electric rail_fast ship" speed="36.11" length="16.98" width="3.50" customShape="1" shape="60.59,-193.39 55.21,-203.35 52.73,-208.44"/>
    </edge>
    <edge id="32549" from="70" to="91" priority="3" type="highway.residential" spreadType="center" length="16.83" shape="55.90,-209.92 74.24,-177.88">
        <lane id="32549_0" index="0" disallow="pedestrian tram rail_urban rail rail_electric rail_fast ship" speed="36.11" length="16.83" width="3.50" customShape="1" shape="55.90,-209.92 58.35,-204.90 63.69,-195.00"/>
    </edge>
    <edge id="32551" from="76" to="92" priority="3" type="highway.residential" spreadType="center" length="70.07" shape="125.24,-85.52 188.51,-138.67">
        <lane id="32551_0" index="0" disallow="pedestrian tram rail_urban rail rail_electric rail_fast ship" speed="36.11" length="70.07" width="3.50" customShape="1" shape="125.24,-85.52 126.34,-86.49 129.23,-88.61 132.32,-90.42 135.53,-91.99 138.85,-93.34 144.21,-95.04 152.97,-97.89 156.38,-99.00 159.22,-100.15 161.48,-101.35 163.99,-103.12 166.28,-105.16 169.40,-108.54 172.31,-112.12 175.18,-116.35 180.21,-124.73"/>
    </edge>
    <edge id="32552" from="92" to="64" priority="3" type="highway.residential" spreadType="center" length="70.00" shape="190.76,-135.99 128.43,-83.60">
        <lane id="32552_0" index="0" disallow="pedestrian tram rail_urban rail rail_electric rail_fast ship" speed="36.11" length="70.00" width="3.50" customShape="1" shape="183.21,-122.93 178.24,-114.63 175.34,-110.34 172.42,-106.68 169.27,-103.22 166.94,-101.04 164.38,-99.09 162.04,-97.69 159.12,-96.33 155.68,-95.09 147.00,-92.26 141.69,-90.59 138.49,-89.42 135.37,-88.02 132.37,-86.40 129.58,-84.55 128.43,-83.60"/>
    </edge>