<routes>
	<vehicle depart="0.1" departLane="0" departPos="38.462055478426" departSpeed="0.3966192" id="317" type="passenger">
		<route edges="32600 32548"/>
	</vehicle>
	<vehicle depart="0.1" departLane="0" departPos="29.55236096788476" departSpeed="0.70171563" id="346" type="passenger">
		<route edges="32600 32548"/>
	</vehicle>
	<vehicle depart="0.1" departLane="0" departPos="21.607460958704575" departSpeed="1.2243063" id="354" type="passenger">
		<route edges="32600 32548"/>
	</vehicle>
	<vehicle depart="0.1" departLane="0" departPos="36.77088222673709" departSpeed="0.39712944" id="356" type="passenger">
		<route edges=":91_5 32599"/>
	</vehicle>
	<vehicle depart="0.1" departLane="0" departPos="12.929970659211802" departSpeed="1.0814458" id="361" type="passenger">
		<route edges="32600 32548"/>
	</vehicle>
	<vehicle depart="0.1" departLane="0" departPos="5.4136464041461325" departSpeed="0.23474771" id="367" type="passenger">
		<route edges="32600 32548"/>
	</vehicle>
	<vehicle depart="0.1" departLane="0" departPos="22.877579383729174" departSpeed="1.4383334" id="371" type="passenger">
		<route edges=":91_5 32599"/>
	</vehicle>
</routes>
