<routes>
	<vehicle depart="0.1" departLane="0" departPos="36.345201773104854" departSpeed="6.8672047" id="1" type="passenger">
		<route edges="50201 50213 50197"/>
	</vehicle>
	<vehicle depart="0.1" departLane="0" departPos="78.49899276403706" departSpeed="3.3046972" id="2" type="passenger">
		<route edges="50195 50211 50199"/>
	</vehicle>
	<vehicle depart="0.1" departLane="0" departPos="147.39860603297691" departSpeed="2.7848706" id="4" type="passenger">
		<route edges="50205 50217 50199"/>
	</vehicle>
	<vehicle depart="0.1" departLane="0" departPos="155.39876749830842" departSpeed="3.4548161" id="5" type="passenger">
		<route edges="50205 50217 50199"/>
	</vehicle>
	<vehicle depart="0.1" departLane="0" departPos="28.343188056357143" departSpeed="2.1811795" id="7" type="passenger">
		<route edges="50201 50213 50197"/>
	</vehicle>
</routes>
