<routes>
	<vehicle depart="0.1" departLane="0" departPos="8.73297537266172" departSpeed="0.056763744" id="313" type="bicycle">
		<route edges=":25_10 11398"/>
	</vehicle>
	<vehicle depart="0.1" departLane="0" departPos="18.72030887697818" departSpeed="1.8556949" id="327" type="bus">
		<route edges="12367 11183"/>
	</vehicle>
	<vehicle depart="0.1" departLane="0" departPos="46.32286598104773" departSpeed="0.99218801" id="33" type="passenger">
		<route edges="11289 11286 12324"/>
	</vehicle>
	<vehicle depart="0.1" departLane="0" departPos="39.36715165104626" departSpeed="0.3380309" id="35" type="passenger">
		<route edges="11289 11286"/>
	</vehicle>
	<vehicle depart="0.1" departLane="0" departPos="2.5" departSpeed="0.58588839" id="312" type="passenger">
		<route edges="11284 12259"/>
	</vehicle>
	<vehicle depart="0.1" departLane="0" departPos="2.5" departSpeed="0.62708825" id="317" type="passenger">
		<route edges=":25_9 12259 11290"/>
	</vehicle>
	<vehicle depart="0.1" departLane="0" departPos="14.293962296848227" departSpeed="0.96209456" id="320" type="passenger">
		<route edges="11183 12259"/>
	</vehicle>
	<vehicle depart="0.1" departLane="0" departPos="28.97378639417881" departSpeed="1.0378436" id="323" type="passenger">
		<route edges="12367 11183 12259"/>
	</vehicle>
	<vehicle depart="0.1" departLane="0" departPos="18.151653133666535" departSpeed="12.340216" id="330" type="passenger">
		<route edges=":25_4 11182 12696"/>
	</vehicle>
</routes>
