<routes>
	<vehicle depart="0.1" departLane="0" departPos="21.92306264933904" departSpeed="2.3249396" id="33" type="passenger">
		<route edges=":37_5 13564"/>
	</vehicle>
	<vehicle depart="0.1" departLane="0" departPos="26.504668996648213" departSpeed="5.159452" id="35" type="passenger">
		<route edges="13563 13460"/>
	</vehicle>
	<vehicle depart="0.1" departLane="0" departPos="6.194749226951121" departSpeed="0.31326201" id="36" type="passenger">
		<route edges=":37_5 13564"/>
	</vehicle>
	<vehicle depart="0.1" departLane="0" departPos="13.134809880026765" departSpeed="5.0922538" id="37" type="passenger">
		<route edges="13563 13460"/>
	</vehicle>
	<vehicle depart="0.1" departLane="0" departPos="15.655070745371438" departSpeed="2.0338617" id="313" type="passenger">
		<route edges="13507 13564"/>
	</vehicle>
	<vehicle depart="0.1" departLane="0" departPos="21.236772882139928" departSpeed="0.025831088" id="321" type="passenger">
		<route edges=":37_1 13460"/>
	</vehicle>
	<vehicle depart="0.1" departLane="0" departPos="14.153979304439993" departSpeed="0.74807958" id="333" type="passenger">
		<route edges="13564 13567"/>
	</vehicle>
	<vehicle depart="0.1" departLane="0" departPos="52.4537782329291" departSpeed="0.01358938" id="349" type="passenger">
		<route edges="13461 13508"/>
	</vehicle>
	<vehicle depart="0.1" departLane="0" departPos="20.72427061356199" departSpeed="6.7978891" id="344" type="motorcycle">
		<route edges=":37_3 13508 13511"/>
	</vehicle>
	<vehicle depart="0.1" departLane="0" departPos="42.53476922282884" departSpeed="1.2759458" id="353" type="motorcycle">
		<route edges="13461 13564"/>
	</vehicle>
</routes>
