<routes>
	<vehicle depart="0.1" departLane="0" departPos="10.431300003449604" departSpeed="5.5001192" id="387" type="bus">
		<route edges=":50_8 130"/>
	</vehicle>
	<vehicle depart="0.1" departLane="0" departPos="112.21775955845834" departSpeed="21.628734" id="34" type="passenger">
		<route edges="115 118"/>
	</vehicle>
	<vehicle depart="0.1" departLane="0" departPos="319.8642324045144" departSpeed="1.7620122e-05" id="35" type="passenger">
		<route edges="115 118"/>
	</vehicle>
	<vehicle depart="0.1" departLane="0" departPos="312.76274809552376" departSpeed="0.00035976123" id="313" type="passenger">
		<route edges="115 118"/>
	</vehicle>
	<vehicle depart="0.1" departLane="0" departPos="305.6581582511994" departSpeed="0.0036404699" id="314" type="passenger">
		<route edges="115 118"/>
	</vehicle>
	<vehicle depart="0.1" departLane="0" departPos="139.22217022017637" departSpeed="23.313819" id="317" type="passenger">
		<route edges="115 118"/>
	</vehicle>
	<vehicle depart="0.1" departLane="0" departPos="29.31584300078903" departSpeed="0.0" id="323" type="passenger">
		<route edges="117 130"/>
	</vehicle>
	<vehicle depart="0.1" departLane="0" departPos="327.1671810291191" departSpeed="0.0" id="324" type="passenger">
		<route edges="115 118"/>
	</vehicle>
	<vehicle depart="0.1" departLane="0" departPos="22.1128711993946" departSpeed="0.0" id="326" type="passenger">
		<route edges="117 130"/>
	</vehicle>
	<vehicle depart="0.1" departLane="0" departPos="15.110075277587518" departSpeed="0.0" id="329" type="passenger">
		<route edges="117 130"/>
	</vehicle>
	<vehicle depart="0.1" departLane="0" departPos="298.53551299894616" departSpeed="0.023788572" id="333" type="passenger">
		<route edges="115 118"/>
	</vehicle>
	<vehicle depart="0.1" departLane="0" departPos="290.69024314464497" departSpeed="1.1543417" id="336" type="passenger">
		<route edges="115 118"/>
	</vehicle>
	<vehicle depart="0.1" departLane="0" departPos="8.298859040342414" departSpeed="0.0" id="344" type="passenger">
		<route edges="117 130"/>
	</vehicle>
	<vehicle depart="0.1" departLane="0" departPos="24.13456988675374" departSpeed="12.718009" id="362" type="passenger">
		<route edges="114 74"/>
	</vehicle>
	<vehicle depart="0.1" departLane="0" departPos="91.66020027998857" departSpeed="19.711184" id="375" type="passenger">
		<route edges="114 74"/>
	</vehicle>
	<vehicle depart="0.1" departLane="0" departPos="11.356215955126242" departSpeed="8.4953645" id="376" type="passenger">
		<route edges=":50_11 114 74"/>
	</vehicle>
	<vehicle depart="0.1" departLane="0" departPos="61.15717631938572" departSpeed="17.118501" id="381" type="passenger">
		<route edges="114 74"/>
	</vehicle>
	<vehicle depart="0.1" departLane="0" departPos="19.947590103248018" departSpeed="5.507291" id="388" type="passenger">
		<route edges="129 114"/>
	</vehicle>
	<vehicle depart="0.1" departLane="0" departPos="9.006513973457519" departSpeed="3.6271063" id="391" type="passenger">
		<route edges="129 114"/>
	</vehicle>
	<vehicle depart="0.1" departLane="0" departPos="7.154595239008784" departSpeed="10.692328" id="365" type="motorcycle">
		<route edges="114 74"/>
	</vehicle>
	<vehicle depart="0.1" departLane="0" departPos="12.748393316932992" departSpeed="2.0058335" id="392" type="truck">
		<route edges="139 130"/>
	</vehicle>
</routes>
