<routes>
	<vehicle depart="0.1" departLane="0" departPos="23.062809876399157" departSpeed="1.1965185" id="324" type="passenger">
		<route edges=":150_2 40650"/>
	</vehicle>
	<vehicle depart="0.1" departLane="0" departPos="94.33880131889961" departSpeed="14.470462" id="357" type="passenger">
		<route edges="40649 40719"/>
	</vehicle>
	<vehicle depart="0.1" departLane="0" departPos="2.5" departSpeed="0.86110788" id="380" type="passenger">
		<route edges="40515 40650"/>
	</vehicle>
	<vehicle depart="0.1" departLane="0" departPos="28.956491139562754" departSpeed="0.91160516" id="395" type="passenger">
		<route edges=":150_11 40719"/>
	</vehicle>
	<vehicle depart="0.1" departLane="0" departPos="11.083966038132417" departSpeed="1.4510508" id="3105" type="passenger">
		<route edges=":150_11 40719"/>
	</vehicle>
	<vehicle depart="0.1" departLane="0" departPos="2.5" departSpeed="1.0152447" id="3112" type="passenger">
		<route edges=":150_10 40650 40464"/>
	</vehicle>
	<vehicle depart="0.1" departLane="0" departPos="34.62461904404858" departSpeed="3.8971304" id="3130" type="passenger">
		<route edges="40647 40650"/>
	</vehicle>
	<vehicle depart="0.1" departLane="0" departPos="24.388758219640476" departSpeed="4.1465933" id="3138" type="passenger">
		<route edges="40647 40650"/>
	</vehicle>
	<vehicle depart="0.1" departLane="0" departPos="65.25474467568782" departSpeed="0.95988107" id="3122" type="truck">
		<route edges="40647 40650"/>
	</vehicle>
	<vehicle depart="0.1" departLane="0" departPos="12.946202044710851" departSpeed="4.1456256" id="3144" type="truck">
		<route edges="40647 40650"/>
	</vehicle>
</routes>
