<routes>
	<vehicle depart="0.1" departLane="0" departPos="33.59561698298195" departSpeed="6.3790352" id="35" type="bicycle">
		<route edges=":21_8 44594 44176"/>
	</vehicle>
	<vehicle depart="0.1" departLane="0" departPos="22.728300984399073" departSpeed="0.2192396" id="34" type="passenger">
		<route edges=":21_2 44590"/>
	</vehicle>
	<vehicle depart="0.1" departLane="0" departPos="13.188553282475697" departSpeed="0.0" id="37" type="passenger">
		<route edges="44593 44384"/>
	</vehicle>
	<vehicle depart="0.1" departLane="0" departPos="4.91385613433671" departSpeed="0.012744433" id="38" type="passenger">
		<route edges=":21_2 44590"/>
	</vehicle>
	<vehicle depart="0.1" departLane="0" departPos="55.421560612717194" departSpeed="0.76340506" id="39" type="passenger">
		<route edges="44383 44590"/>
	</vehicle>
	<vehicle depart="0.1" departLane="0" departPos="20.690400825061136" departSpeed="0.0" id="313" type="passenger">
		<route edges="44593 44384"/>
	</vehicle>
	<vehicle depart="0.1" departLane="0" departPos="50.56726067801524" departSpeed="5.3708835" id="327" type="passenger">
		<route edges="44381 44594"/>
	</vehicle>
	<vehicle depart="0.1" departLane="0" departPos="24.497401521493224" departSpeed="6.0456658" id="332" type="passenger">
		<route edges="44381 44590"/>
	</vehicle>
	<vehicle depart="0.1" departLane="0" departPos="15.247454432070771" departSpeed="4.1806356" id="335" type="passenger">
		<route edges="44381 44590"/>
	</vehicle>
	<vehicle depart="0.1" departLane="0" departPos="8.065101805605028" departSpeed="8.5225798" id="322" type="motorcycle">
		<route edges=":21_7 44384"/>
	</vehicle>
</routes>
