<routes>
	<vehicle depart="0.1" departLane="1" departPos="80.51769259367481" departSpeed="12.812649" id="1" type="passenger">
		<route edges="26 26 27 24"/>
	</vehicle>
	<vehicle depart="0.1" departLane="0" departPos="0" departSpeed="13.393439" id="2" type="passenger">
		<route edges="26 27 24"/>
	</vehicle>
	<vehicle depart="0.1" departLane="0" departPos="95.50231718059817" departSpeed="12.812649" id="3" type="passenger">
		<route edges="26 27 24"/>
	</vehicle>
</routes>
