<routes>
	<vehicle depart="0.1" departLane="5" departPos="130.15273221962354" departSpeed="5.2273" id="271" type="passenger">
		<route edges="16"/>
	</vehicle>
	<vehicle depart="0.1" departLane="5" departPos="117.24618494169584" departSpeed="1.9934" id="280" type="passenger">
		<route edges="16"/>
	</vehicle>
	<vehicle depart="0.1" departLane="5" departPos="106.46677791304508" departSpeed="3.051" id="282" type="passenger">
		<route edges="16"/>
	</vehicle>
	<vehicle depart="0.1" departLane="5" departPos="94.88474868535071" departSpeed="0.0" id="298" type="passenger">
		<route edges="16"/>
	</vehicle>
	<vehicle depart="0.1" departLane="5" departPos="88.00742865735377" departSpeed="0.84125" id="302" type="passenger">
		<route edges="16"/>
	</vehicle>
	<vehicle depart="0.1" departLane="4" departPos="147.58638349567994" departSpeed="11.9451" id="304" type="passenger">
		<route edges="16"/>
	</vehicle>
	<vehicle depart="0.1" departLane="1" departPos="151.99676221286214" departSpeed="14.0025" id="310" type="passenger">
		<route edges="16"/>
	</vehicle>
	<vehicle depart="0.1" departLane="4" departPos="125.78678592065019" departSpeed="10.668" id="311" type="passenger">
		<route edges="16"/>
	</vehicle>
	<vehicle depart="0.1" departLane="3" departPos="133.50424814579708" departSpeed="11.5428" id="319" type="passenger">
		<route edges="16"/>
	</vehicle>
	<vehicle depart="0.1" departLane="1" departPos="126.36013074910136" departSpeed="12.8991" id="320" type="passenger">
		<route edges="16"/>
	</vehicle>
	<vehicle depart="0.1" departLane="2" departPos="125.47172284357002" departSpeed="13.716" id="321" type="passenger">
		<route edges="16"/>
	</vehicle>
	<vehicle depart="0.1" departLane="5" departPos="78.73118569641625" departSpeed="0.0" id="322" type="passenger">
		<route edges="16"/>
	</vehicle>
	<vehicle depart="0.1" departLane="2" departPos="115.76198914761076" departSpeed="13.4173" id="323" type="passenger">
		<route edges="16"/>
	</vehicle>
	<vehicle depart="0.1" departLane="3" departPos="111.29501487160601" departSpeed="12.192" id="324" type="passenger">
		<route edges="16"/>
	</vehicle>
	<vehicle depart="0.1" departLane="3" departPos="87.20731938399426" departSpeed="12.7376" id="328" type="passenger">
		<route edges="16"/>
	</vehicle>
	<vehicle depart="0.1" departLane="4" departPos="97.14817744862535" departSpeed="10.671" id="329" type="passenger">
		<route edges="16"/>
	</vehicle>
	<vehicle depart="0.1" departLane="2" departPos="91.46113331515737" departSpeed="13.5545" id="330" type="passenger">
		<route edges="16"/>
	</vehicle>
	<vehicle depart="0.1" departLane="4" departPos="85.25362018642716" departSpeed="9.8268" id="331" type="passenger">
		<route edges="16"/>
	</vehicle>
	<vehicle depart="0.1" departLane="1" departPos="97.67757177064493" departSpeed="14.0117" id="332" type="passenger">
		<route edges="16"/>
	</vehicle>
	<vehicle depart="0.1" departLane="1" departPos="69.89616291899782" departSpeed="13.3685" id="339" type="passenger">
		<route edges="16"/>
	</vehicle>
	<vehicle depart="0.1" departLane="0" departPos="75.34482880198655" departSpeed="16.5324" id="340" type="passenger">
		<route edges="16 16"/>
	</vehicle>
	<vehicle depart="0.1" departLane="3" departPos="65.87095445861327" departSpeed="12.3871" id="342" type="passenger">
		<route edges="16"/>
	</vehicle>
	<vehicle depart="0.1" departLane="4" departPos="56.81338020002632" departSpeed="11.5885" id="344" type="passenger">
		<route edges="16"/>
	</vehicle>
	<vehicle depart="0.1" departLane="0" departPos="51.202168736519205" departSpeed="16.8341" id="345" type="passenger">
		<route edges="16"/>
	</vehicle>
	<vehicle depart="0.1" departLane="2" departPos="49.521454379791805" departSpeed="12.2682" id="346" type="passenger">
		<route edges="16"/>
	</vehicle>
	<vehicle depart="0.1" departLane="3" departPos="40.064943995470045" departSpeed="10.6589" id="347" type="passenger">
		<route edges="16"/>
	</vehicle>
	<vehicle depart="0.1" departLane="1" departPos="28.959556005195765" departSpeed="15.24" id="350" type="passenger">
		<route edges="16"/>
	</vehicle>
	<vehicle depart="0.1" departLane="4" departPos="32.62869377451247" departSpeed="10.2779" id="351" type="passenger">
		<route edges="16"/>
	</vehicle>
	<vehicle depart="0.1" departLane="2" departPos="6.058665252435086" departSpeed="14.1519" id="356" type="passenger">
		<route edges="16"/>
	</vehicle>
	<vehicle depart="0.1" departLane="1" departPos="5.9552269307586005" departSpeed="13.399" id="357" type="passenger">
		<route edges="16"/>
	</vehicle>
	<vehicle depart="0.1" departLane="0" departPos="0" departSpeed="19.8394" id="358" type="passenger">
		<route edges="17 16"/>
	</vehicle>
	<vehicle depart="0.1" departLane="5" departPos="68.19505702580896" departSpeed="1.524" id="363" type="passenger">
		<route edges="16"/>
	</vehicle>
	<vehicle depart="0.1" departLane="4" departPos="0" departSpeed="12.067" id="364" type="passenger">
		<route edges="16"/>
	</vehicle>
	<vehicle depart="0.1" departLane="3" departPos="7.457181600752776" departSpeed="11.177" id="365" type="passenger">
		<route edges="16"/>
	</vehicle>
	<vehicle depart="0.1" departLane="0" departPos="16.620685685099446" departSpeed="14.7493" id="366" type="passenger">
		<route edges="20 16 16"/>
	</vehicle>
	<vehicle depart="0.1" departLane="2" departPos="23.296317398522962" departSpeed="10.668" id="368" type="passenger">
		<route edges="20 16"/>
	</vehicle>
	<vehicle depart="0.1" departLane="3" departPos="12.22214311135414" departSpeed="11.9847" id="372" type="passenger">
		<route edges="20 16"/>
	</vehicle>
	<vehicle depart="0.1" departLane="2" departPos="0" departSpeed="10.6619" id="374" type="passenger">
		<route edges="20 16"/>
	</vehicle>
	<vehicle depart="0.1" departLane="5" departPos="53.96601937109917" departSpeed="0.0" id="376" type="passenger">
		<route edges="16"/>
	</vehicle>
	<vehicle depart="0.1" departLane="5" departPos="43.86015420669131" departSpeed="3.048" id="396" type="passenger">
		<route edges="16"/>
	</vehicle>
	<vehicle depart="0.1" departLane="5" departPos="31.498685763014883" departSpeed="3.048" id="397" type="passenger">
		<route edges="16"/>
	</vehicle>
	<vehicle depart="0.1" departLane="5" departPos="21.1496164589177" departSpeed="3.048" id="404" type="passenger">
		<route edges="16"/>
	</vehicle>
	<vehicle depart="0.1" departLane="5" departPos="11.536949148629231" departSpeed="3.048" id="417" type="passenger">
		<route edges="16"/>
	</vehicle>
	<vehicle depart="0.1" departLane="5" departPos="0" departSpeed="3.048" id="422" type="passenger">
		<route edges="16"/>
	</vehicle>
	<vehicle depart="0.1" departLane="4" departPos="22.442877178458907" departSpeed="2.9322" id="427" type="passenger">
		<route edges="20 16"/>
	</vehicle>
	<vehicle depart="0.1" departLane="4" departPos="0" departSpeed="7.1963" id="442" type="passenger">
		<route edges="20 16"/>
	</vehicle>
</routes>
