<routes>
	<vehicle depart="0.1" departLane="0" departPos="6.290956423899985" departSpeed="6.3325248" id="333" type="bicycle">
		<route edges=":60_2 31701"/>
	</vehicle>
	<vehicle depart="0.1" departLane="0" departPos="59.99405077422281" departSpeed="0.0" id="329" type="passenger">
		<route edges="31700 36212"/>
	</vehicle>
	<vehicle depart="0.1" departLane="0" departPos="23.989619374234014" departSpeed="11.054423" id="336" type="passenger">
		<route edges=":60_4 36212 31620"/>
	</vehicle>
	<vehicle depart="0.1" departLane="0" departPos="12.621500038892789" departSpeed="8.9038561" id="344" type="passenger">
		<route edges=":60_4 36212 31620"/>
	</vehicle>
	<vehicle depart="0.1" departLane="0" departPos="23.62831448674936" departSpeed="7.8674258" id="359" type="passenger">
		<route edges=":61_4 30925 36212"/>
	</vehicle>
	<vehicle depart="0.1" departLane="0" departPos="69.9945327395512" departSpeed="0.0" id="319" type="truck">
		<route edges="31700 36212"/>
	</vehicle>
</routes>
