<routes>
	<vehicle depart="0.1" departLane="0" departPos="40.169165117597984" departSpeed="3.5036278" id="37" type="passenger">
		<route edges="1900 1638"/>
	</vehicle>
	<vehicle depart="0.1" departLane="0" departPos="25.874107052300875" departSpeed="1.4994221" id="39" type="passenger">
		<route edges="1900 1955"/>
	</vehicle>
	<vehicle depart="0.1" departLane="0" departPos="20.006197085970943" departSpeed="2.3473685" id="313" type="passenger">
		<route edges="1639 1955"/>
	</vehicle>
	<vehicle depart="0.1" departLane="0" departPos="24.453205109839132" departSpeed="3.7406564" id="319" type="passenger">
		<route edges=":49_1 1638"/>
	</vehicle>
	<vehicle depart="0.1" departLane="0" departPos="40.428305407345775" departSpeed="0.81272591" id="336" type="passenger">
		<route edges=":54_3 1639 1955"/>
	</vehicle>
	<vehicle depart="0.1" departLane="0" departPos="9.655912272539073" departSpeed="6.2029374" id="356" type="passenger">
		<route edges=":49_5 1901"/>
	</vehicle>
	<vehicle depart="0.1" departLane="0" departPos="69.03412093703344" departSpeed="0.0" id="360" type="passenger">
		<route edges="1954 1638"/>
	</vehicle>
	<vehicle depart="0.1" departLane="0" departPos="58.0963758396805" departSpeed="3.0124176" id="364" type="passenger">
		<route edges="1954 1638"/>
	</vehicle>
	<vehicle depart="0.1" departLane="0" departPos="9.173682707174265" departSpeed="2.6827473" id="328" type="motorcycle">
		<route edges="1639 1955"/>
	</vehicle>
</routes>
