<routes>
	<vehicle depart="0.1" departLane="0" departPos="16.0" departSpeed="4.5" id="1" type="bicycle">
		<route edges="10 9 8"/>
	</vehicle>
	<vehicle depart="0.1" departLane="0" departPos="5.0" departSpeed="0.0" id="2" type="passenger">
		<route edges="9"/>
	</vehicle>
	<vehicle depart="0.1" departLane="0" departPos="20.0" departSpeed="0.0" id="3" type="passenger">
		<route edges="9"/>
	</vehicle>
	<vehicle depart="0.1" departLane="0" departPos="5.0" departSpeed="0.0" id="4" type="passenger">
		<route edges="10"/>
	</vehicle>
	<vehicle depart="0.1" departLane="0" departPos="11.0" departSpeed="0.0" id="5" type="passenger">
		<route edges="10"/>
	</vehicle>
	<vehicle depart="0.1" departLane="0" departPos="8.5" departSpeed="0.0" id="6" type="passenger">
		<route edges="9"/>
	</vehicle>
	<vehicle depart="0.1" departLane="0" departPos="12.5" departSpeed="0.0" id="7" type="passenger">
		<route edges="9"/>
	</vehicle>
</routes>
