<routes>
	<vehicle depart="0.1" departLane="0" departPos="5.022170577637072" departSpeed="3.5414037" id="34" type="passenger">
		<route edges="78178 78181"/>
	</vehicle>
	<vehicle depart="0.1" departLane="0" departPos="22.252691968895594" departSpeed="0.11494794" id="35" type="passenger">
		<route edges=":47_4 78081"/>
	</vehicle>
	<vehicle depart="0.1" departLane="0" departPos="46.787368141596076" departSpeed="0.86422164" id="36" type="passenger">
		<route edges="78175 78081"/>
	</vehicle>
	<vehicle depart="0.1" departLane="0" departPos="14.656243374345223" departSpeed="7.0181257" id="321" type="passenger">
		<route edges=":47_2 78178"/>
	</vehicle>
	<vehicle depart="0.1" departLane="0" departPos="7.1665758494490435" departSpeed="0.13922266" id="333" type="passenger">
		<route edges=":47_4 78081"/>
	</vehicle>
	<vehicle depart="0.1" departLane="0" departPos="14.560036827654278" departSpeed="15.113252" id="334" type="passenger">
		<route edges="78081 78084"/>
	</vehicle>
	<vehicle depart="0.1" departLane="0" departPos="16.0559130036133" departSpeed="12.383228" id="339" type="passenger">
		<route edges=":46_4 78177 78174"/>
	</vehicle>
	<vehicle depart="0.1" departLane="0" departPos="53.400803217975174" departSpeed="0.74957276" id="343" type="passenger">
		<route edges="78175 78081"/>
	</vehicle>
	<vehicle depart="0.1" departLane="0" departPos="26.0588614580555" departSpeed="1.7163626" id="350" type="passenger">
		<route edges="78175 78081"/>
	</vehicle>
	<vehicle depart="0.1" departLane="0" departPos="42.407605916096564" departSpeed="1.9885869" id="327" type="motorcycle">
		<route edges="78080 78174"/>
	</vehicle>
</routes>
