<!-- generated on 2020-12-18 16:00:53.876261 by ipykernel_launcher.py v1_2_0+5214-53edc58fcd
-->
<edges>
	<edge from="1" function="normal" id="3498" length="9.586095898357163" numLanes="1" priority="1" speed="36.11111111111111" spreadType="center" to="2">
		<lane allow="moped bicycle pedestrian custom1 trailer evehicle rail_urban ship private truck vip custom2 authority delivery rail_electric taxi tram army hov coach motorcycle passenger bus rail emergency" index="0" length="9.586095898357163" shape="57.15885,24.8595 47.5781,25.1796" speed="36.11111111111111" width="4.771086938004798"/>
	</edge>
	<edge from="2" function="normal" id="3716" length="18.680147901632278" numLanes="1" priority="1" speed="36.11111111111111" spreadType="center" to="3">
		<lane allow="moped bicycle pedestrian custom1 trailer evehicle rail_urban ship private vip custom2 authority delivery rail_electric taxi tram army hov coach motorcycle passenger rail emergency" index="0" length="18.680147901632278" shape="47.5781,25.1796 43.59425,26.621000000000002 40.73865,29.12365 39.68715,31.51375 38.9845,33.542 39.1295,36.687 40.12065,39.24195" speed="36.11111111111111" width="3.353872355949164"/>
	</edge>
	<edge from="4" function="normal" id="3509" length="15.632980848532554" numLanes="3" priority="1" speed="36.11111111111111" spreadType="center" to="5">
		<lane allow="moped bicycle pedestrian custom1 trailer evehicle rail_urban ship private truck vip custom2 authority delivery rail_electric taxi tram army hov coach motorcycle passenger bus rail emergency" index="0" length="15.632980848532554" shape="-53.6342,-40.15985 -49.238,-42.3407 -39.62755,-47.12425" speed="36.11111111111111" width="3.2317602711216056"/>
		<lane allow="moped bicycle pedestrian custom1 trailer evehicle rail_urban ship private truck vip custom2 authority delivery rail_electric taxi tram army hov coach motorcycle passenger bus rail emergency" index="1" length="15.632980848532554" shape="-52.24465,-37.3588 -47.807249999999996,-39.560100000000006 -38.19675,-44.34365" speed="36.11111111111111" width="3.0217924167619463"/>
		<lane allow="moped bicycle pedestrian custom1 trailer evehicle rail_urban ship private truck vip custom2 authority delivery rail_electric taxi tram army hov coach motorcycle passenger bus rail emergency" index="2" length="15.632980848532554" shape="-50.8935,-34.635149999999996 -46.4009,-36.8638 -36.89,-41.5844" speed="36.11111111111111" width="3.058956104621312"/>
	</edge>
	<edge from="5" function="normal" id="3672" length="43.429643178518916" numLanes="1" priority="1" speed="36.11111111111111" spreadType="center" to="6">
		<lane allow="moped bicycle pedestrian custom1 trailer evehicle rail_urban ship private vip custom2 authority delivery rail_electric taxi tram army hov coach motorcycle passenger rail emergency" index="0" length="43.429643178518916" shape="-36.89,-41.5844 -31.732799999999997,-44.124750000000006 -28.15,-45.60925 -24.30415,-46.9679 -21.52345,-47.9382 -19.0375,-48.435050000000004 -16.80265,-48.64745 -14.46645,-48.53045 -12.821950000000001,-48.39605 -11.712499999999999,-48.139799999999994 -10.77275,-47.556799999999996 -9.8535,-46.2066 -8.6978,-44.27825 -6.03035,-40.040800000000004 -4.4566,-36.98905 -2.9848500000000002,-33.876900000000006" speed="36.11111111111111" width="2.917182176347581"/>
	</edge>
	<edge from="6" function="normal" id="3456" length="24.710920579823167" numLanes="3" priority="1" speed="36.11111111111111" spreadType="center" to="7">
		<lane allow="moped bicycle pedestrian custom1 trailer evehicle rail_urban ship private truck vip custom2 authority delivery rail_electric taxi tram army hov coach motorcycle passenger bus rail emergency" index="0" length="24.710920579823167" shape="2.5418000000000003,-36.6366 6.137600000000001,-29.443 9.99095,-21.5259 13.3536,-14.4175" speed="36.11111111111111" width="3.047668597469219"/>
		<lane allow="moped bicycle pedestrian custom1 trailer evehicle rail_urban ship private truck vip custom2 authority delivery rail_electric taxi tram army hov coach motorcycle passenger bus rail emergency" index="1" length="24.710920579823167" shape="-0.2870499999999999,-35.24235 3.5730500000000003,-27.67545 7.2513,-20.10985 10.69015,-13.0794" speed="36.11111111111111" width="2.914824113046961"/>
		<lane allow="moped bicycle pedestrian custom1 trailer evehicle rail_urban ship private truck vip custom2 authority delivery rail_electric taxi tram army hov coach motorcycle passenger bus rail emergency" index="2" length="24.710920579823167" shape="-2.9848500000000002,-33.876900000000006 0.9436500000000001,-26.1147 4.7321,-18.412149999999997 8.10365,-11.765550000000001" speed="36.11111111111111" width="2.888004380190584"/>
	</edge>
	<edge from="7" function="normal" id="3462" length="8.466645302154804" numLanes="3" priority="1" speed="36.11111111111111" spreadType="center" to="8">
		<lane allow="moped bicycle pedestrian custom1 trailer evehicle rail_urban ship private truck vip custom2 authority delivery rail_electric taxi tram army hov coach motorcycle passenger bus rail emergency" index="0" length="8.466645302154804" shape="13.3536,-14.4175 17.2329,-6.85475" speed="36.11111111111111" width="3.047668597469219"/>
		<lane allow="moped bicycle pedestrian custom1 trailer evehicle rail_urban ship private truck vip custom2 authority delivery rail_electric taxi tram army hov coach motorcycle passenger bus rail emergency" index="1" length="8.466645302154804" shape="10.69015,-13.0794 14.50825,-5.4697" speed="36.11111111111111" width="2.914824113046961"/>
		<lane allow="moped bicycle pedestrian custom1 trailer evehicle rail_urban ship private truck vip custom2 authority delivery rail_electric taxi tram army hov coach motorcycle passenger bus rail emergency" index="2" length="8.466645302154804" shape="8.10365,-11.765550000000001 11.8443,-4.17005" speed="36.11111111111111" width="2.888004380190584"/>
	</edge>
	<edge from="8" function="normal" id="3468" length="22.238196627283084" numLanes="3" priority="1" speed="36.11111111111111" spreadType="center" to="9">
		<lane allow="moped bicycle pedestrian custom1 trailer evehicle rail_urban ship private truck vip custom2 authority delivery rail_electric taxi tram army hov coach motorcycle passenger bus rail emergency" index="0" length="22.238196627283084" shape="17.2329,-6.85475 21.832250000000002,2.4368 27.2089,13.117799999999999" speed="36.11111111111111" width="3.0326639856733206"/>
		<lane allow="moped bicycle pedestrian custom1 trailer evehicle rail_urban ship private truck vip custom2 authority delivery rail_electric taxi tram army hov coach motorcycle passenger bus rail emergency" index="1" length="22.238196627283084" shape="14.50825,-5.4697 19.1545,3.85205 24.40635,14.45785" speed="36.11111111111111" width="2.9980111023810427"/>
		<lane allow="moped bicycle pedestrian custom1 trailer evehicle rail_urban ship private truck vip custom2 authority delivery rail_electric taxi tram army hov coach motorcycle passenger bus rail emergency" index="2" length="22.238196627283084" shape="11.8443,-4.17005 16.46065,5.229 21.65,15.78955" speed="36.11111111111111" width="2.9350875710956226"/>
	</edge>
	<edge from="9" function="normal" id="3713" length="29.14281680783745" numLanes="3" priority="1" speed="36.11111111111111" spreadType="center" to="10">
		<lane allow="moped bicycle pedestrian custom1 trailer evehicle rail_urban ship private truck vip custom2 authority delivery rail_electric taxi tram army hov coach motorcycle passenger bus rail emergency" index="0" length="29.14281680783745" shape="27.2089,13.117799999999999 31.125049999999998,21.110950000000003 35.071650000000005,29.0575 38.827749999999995,36.66815 40.0011,39.3007" speed="36.11111111111111" width="3.157633506282832"/>
		<lane allow="moped bicycle pedestrian custom1 trailer evehicle rail_urban ship private truck vip custom2 authority delivery rail_electric taxi tram army hov coach motorcycle passenger rail emergency" index="1" length="29.14281680783745" shape="24.40635,14.45785 27.84385,21.395850000000003 31.790350000000004,29.34245 35.961,37.839749999999995 37.245999999999995,40.6541" speed="36.11111111111111" width="2.9348672269797813"/>
		<lane allow="moped bicycle pedestrian custom1 trailer evehicle rail_urban ship private truck vip custom2 authority delivery rail_electric taxi tram army hov coach motorcycle passenger bus rail emergency" index="2" length="29.14281680783745" shape="21.65,15.78955 24.482599999999998,21.489600000000003 28.317349999999998,29.1915 33.1559,39.002849999999995 34.54205,41.98235" speed="36.11111111111111" width="3.0673220453679146"/>
	</edge>
	<edge from="5" function="normal" id="3636" length="10.13044496320374" numLanes="2" priority="1" speed="36.11111111111111" spreadType="center" to="11">
		<lane allow="moped bicycle pedestrian custom1 trailer evehicle rail_urban ship private truck vip custom2 authority delivery rail_electric taxi tram army hov coach motorcycle passenger bus rail emergency" index="0" length="10.13044496320374" shape="-39.62755,-47.12425 -30.61645,-51.8096" speed="36.11111111111111" width="3.2321866189934005"/>
		<lane allow="moped bicycle pedestrian custom1 trailer evehicle rail_urban ship private truck vip custom2 authority delivery rail_electric taxi tram army hov coach motorcycle passenger bus rail emergency" index="1" length="10.13044496320374" shape="-38.19675,-44.34365 -29.17205,-48.945899999999995" speed="36.11111111111111" width="3.0254656269738045"/>
	</edge>
	<edge from="11" function="normal" id="3658" length="24.83401336288984" numLanes="2" priority="1" speed="36.11111111111111" spreadType="center" to="12">
		<lane allow="moped bicycle pedestrian custom1 trailer evehicle rail_urban ship private truck vip custom2 authority delivery rail_electric taxi tram army hov coach motorcycle passenger bus rail emergency" index="0" length="24.83401336288984" shape="-30.61645,-51.8096 -27.72065,-53.3155 -25.06515,-54.69625 -22.3482,-56.10895 -19.3599,-57.662850000000006 -16.658250000000002,-59.067750000000004 -14.01355,-60.442899999999995 -11.298,-61.8549 -8.526250000000001,-63.29615" speed="36.11111111111111" width="3.30890878840744"/>
		<lane allow="moped bicycle pedestrian custom1 trailer evehicle rail_urban ship private truck vip custom2 authority delivery rail_electric taxi tram army hov coach motorcycle passenger bus rail emergency" index="1" length="24.83401336288984" shape="-29.17205,-48.945899999999995 -26.30405,-50.408500000000004 -23.633049999999997,-51.77055 -20.894750000000002,-53.1669 -17.930149999999998,-54.678650000000005 -15.2197,-56.060900000000004 -12.569749999999999,-57.41215 -9.8353,-58.80645 -7.048500000000001,-60.227599999999995" speed="36.11111111111111" width="3.105783426126172"/>
	</edge>
	<edge from="12" function="normal" id="3676" length="16.155928389455163" numLanes="2" priority="1" speed="36.11111111111111" spreadType="center" to="13">
		<lane allow="moped bicycle pedestrian custom1 trailer evehicle rail_urban ship private truck vip custom2 authority delivery rail_electric taxi tram army hov coach motorcycle passenger bus rail emergency" index="0" length="16.155928389455163" shape="-8.526250000000001,-63.29615 -2.50655,-66.3024 5.9275,-70.5144" speed="36.11111111111111" width="3.5034549033775164"/>
		<lane allow="moped bicycle pedestrian custom1 trailer evehicle rail_urban ship private truck vip custom2 authority delivery rail_electric taxi tram army hov coach motorcycle passenger bus rail emergency" index="1" length="16.155928389455163" shape="-7.048500000000001,-60.227599999999995 -1.02385,-63.212900000000005 7.47235,-67.4228" speed="36.11111111111111" width="3.3082245268421575"/>
	</edge>
	<edge from="13" function="normal" id="3525" length="17.28043527267281" numLanes="3" priority="1" speed="36.11111111111111" spreadType="center" to="14">
		<lane allow="moped bicycle pedestrian custom1 trailer evehicle rail_urban ship private truck vip custom2 authority delivery rail_electric taxi tram army hov coach motorcycle passenger bus rail emergency" index="0" length="17.28043527267281" shape="4.30445,-73.8425 13.031749999999999,-78.13755 19.820050000000002,-81.47835" speed="36.11111111111111" width="3.8739027478758414"/>
		<lane allow="moped bicycle pedestrian custom1 trailer evehicle rail_urban ship private truck vip custom2 authority delivery rail_electric taxi tram army hov coach motorcycle passenger bus rail emergency" index="1" length="17.28043527267281" shape="5.9275,-70.5144 14.65465,-74.80795 21.453899999999997,-78.153" speed="36.11111111111111" width="3.5117895381130184"/>
		<lane allow="moped bicycle pedestrian custom1 trailer evehicle rail_urban ship private truck vip custom2 authority delivery rail_electric taxi tram army hov coach motorcycle passenger bus rail emergency" index="2" length="17.28043527267281" shape="7.47235,-67.4228 16.15115,-71.6914 22.9787,-75.0495" speed="36.11111111111111" width="3.379496749517604"/>
	</edge>
	<edge from="5" function="normal" id="3600" length="24.19746751136553" numLanes="1" priority="1" speed="36.11111111111111" spreadType="center" to="15">
		<lane allow="moped bicycle pedestrian custom1 trailer evehicle rail_urban ship private vip custom2 authority delivery rail_electric taxi tram army hov coach motorcycle passenger rail emergency" index="0" length="24.19746751136553" shape="-39.62755,-47.12425 -35.139250000000004,-49.5192 -33.146249999999995,-50.7093 -31.5432,-51.6199 -30.8001,-52.09985 -30.376,-52.68745 -30.3402,-53.4944 -30.7474,-54.906 -31.548299999999998,-56.87215 -32.52875,-58.9705 -35.321650000000005,-64.97245" speed="36.11111111111111" width="3.2321866189934005"/>
	</edge>
	<edge from="15" function="normal" id="3542" length="74.2461753523541" numLanes="3" priority="1" speed="36.11111111111111" spreadType="center" to="16">
		<lane allow="moped bicycle pedestrian custom1 trailer evehicle rail_urban ship private truck vip custom2 authority delivery rail_electric taxi tram army hov coach motorcycle passenger bus rail emergency" index="0" length="74.2461753523541" shape="-35.321650000000005,-64.97245 -39.48295,-73.51115 -43.536199999999994,-82.44115 -47.30825,-91.15965 -50.933,-100.40360000000001 -54.647999999999996,-109.46145 -58.33165,-118.48905 -62.015699999999995,-127.5475 -64.30275,-133.3435" speed="36.11111111111111" width="2.8235974571457607"/>
		<lane allow="moped bicycle pedestrian custom1 trailer evehicle rail_urban ship private truck vip custom2 authority delivery rail_electric taxi tram army hov coach motorcycle passenger bus rail emergency" index="1" length="74.2461753523541" shape="-32.478,-66.4651 -36.7214,-75.0199 -40.80355,-83.80330000000001 -44.544200000000004,-92.4915 -48.1982,-101.6118 -51.851299999999995,-110.67065 -55.502750000000006,-119.6063 -59.094049999999996,-128.6661 -61.485299999999995,-134.7898" speed="36.11111111111111" width="2.9693589611227593"/>
		<lane allow="moped bicycle pedestrian custom1 trailer evehicle rail_urban ship private truck vip custom2 authority delivery rail_electric taxi tram army hov coach motorcycle passenger bus rail emergency" index="2" length="74.2461753523541" shape="-29.82995,-67.85505 -34.05275,-76.535 -38.1031,-85.2573 -41.87465,-93.9451 -45.3695,-102.74445 -49.025,-111.97255 -52.67685,-120.93905000000001 -56.14365,-129.93895 -58.6548,-136.24285" speed="36.11111111111111" width="2.962201547835665"/>
	</edge>
	<edge from="17" function="normal" id="3532" length="13.634900230131375" numLanes="2" priority="1" speed="36.11111111111111" spreadType="center" to="18">
		<lane allow="moped bicycle pedestrian custom1 trailer evehicle rail_urban ship private truck vip custom2 authority delivery rail_electric taxi tram army hov coach motorcycle passenger bus rail emergency" index="0" length="13.634900230131375" shape="27.5244,-65.79765 20.591749999999998,-62.4088 15.24735,-59.79625" speed="36.11111111111111" width="3.607231317783766"/>
		<lane allow="moped bicycle pedestrian custom1 trailer evehicle rail_urban ship private truck vip custom2 authority delivery rail_electric taxi tram army hov coach motorcycle passenger bus rail emergency" index="1" length="13.634900230131375" shape="25.91975,-69.06360000000001 19.06125,-65.71039999999999 13.6704,-63.07495" speed="36.11111111111111" width="3.623546501702443"/>
	</edge>
	<edge from="18" function="normal" id="3534" length="6.575577396130321" numLanes="3" priority="1" speed="36.11111111111111" spreadType="center" to="19">
		<lane allow="moped bicycle pedestrian custom1 trailer evehicle rail_urban ship private truck vip custom2 authority delivery rail_electric taxi tram army hov coach motorcycle passenger bus rail emergency" index="0" length="6.575577396130321" shape="15.24735,-59.79625 10.8245,-53.7744" speed="36.11111111111111" width="3.24573724136751"/>
		<lane allow="moped bicycle pedestrian custom1 trailer evehicle rail_urban ship private truck vip custom2 authority delivery rail_electric taxi tram army hov coach motorcycle passenger bus rail emergency" index="1" length="6.575577396130321" shape="15.24735,-59.79625 9.33535,-56.85625" speed="36.11111111111111" width="3.602433613545158"/>
		<lane allow="moped bicycle pedestrian custom1 trailer evehicle rail_urban ship private truck vip custom2 authority delivery rail_electric taxi tram army hov coach motorcycle passenger bus rail emergency" index="2" length="6.575577396130321" shape="13.6704,-63.07495 7.78235,-60.14765" speed="36.11111111111111" width="3.6713079753679074"/>
	</edge>
	<edge from="19" function="normal" id="3536" length="6.6083636571393365" numLanes="3" priority="1" speed="36.11111111111111" spreadType="center" to="20">
		<lane allow="moped bicycle pedestrian custom1 trailer evehicle rail_urban ship private truck vip custom2 authority delivery rail_electric taxi tram army hov coach motorcycle passenger bus rail emergency" index="0" length="6.6083636571393365" shape="10.8245,-53.7744 4.84495,-50.88495" speed="36.11111111111111" width="3.190167196245363"/>
		<lane allow="moped bicycle pedestrian custom1 trailer evehicle rail_urban ship private truck vip custom2 authority delivery rail_electric taxi tram army hov coach motorcycle passenger bus rail emergency" index="1" length="6.6083636571393365" shape="9.33535,-56.85625 3.3952,-53.911500000000004" speed="36.11111111111111" width="3.5215687697388507"/>
		<lane allow="moped bicycle pedestrian custom1 trailer evehicle rail_urban ship private truck vip custom2 authority delivery rail_electric taxi tram army hov coach motorcycle passenger bus rail emergency" index="2" length="6.6083636571393365" shape="7.78235,-60.14765 1.8723,-57.191" speed="36.11111111111111" width="3.6773714878972954"/>
	</edge>
	<edge from="20" function="normal" id="3620" length="6.669397413559939" numLanes="2" priority="1" speed="36.11111111111111" spreadType="center" to="21">
		<lane allow="moped bicycle pedestrian custom1 trailer evehicle rail_urban ship private truck vip custom2 authority delivery rail_electric taxi tram army hov coach motorcycle passenger bus rail emergency" index="0" length="6.669397413559939" shape="3.3952,-53.911500000000004 -2.5823,-50.9534" speed="36.11111111111111" width="3.4558219456447676"/>
		<lane allow="moped bicycle pedestrian custom1 trailer evehicle rail_urban ship private truck vip custom2 authority delivery rail_electric taxi tram army hov coach motorcycle passenger bus rail emergency" index="1" length="6.669397413559939" shape="1.8723,-57.191 -4.135149999999999,-54.177899999999994" speed="36.11111111111111" width="3.702039012490279"/>
	</edge>
	<edge from="21" function="normal" id="3662" length="24.644895567957" numLanes="2" priority="1" speed="36.11111111111111" spreadType="center" to="22">
		<lane allow="moped bicycle pedestrian custom1 trailer evehicle rail_urban ship private truck vip custom2 authority delivery rail_electric taxi tram army hov coach motorcycle passenger bus rail emergency" index="0" length="24.644895567957" shape="-2.5823,-50.9534 -5.3988499999999995,-49.55955 -8.175650000000001,-48.1854 -10.825050000000001,-46.8742 -13.54715,-45.52705 -16.41885,-44.105850000000004 -19.20765,-42.7257 -21.9097,-41.3885 -24.6703,-40.0222" speed="36.11111111111111" width="3.2133408160355486"/>
		<lane allow="moped bicycle pedestrian custom1 trailer evehicle rail_urban ship private truck vip custom2 authority delivery rail_electric taxi tram army hov coach motorcycle passenger bus rail emergency" index="1" length="24.644895567957" shape="-4.135149999999999,-54.177899999999994 -6.93965,-52.77119999999999 -9.7002,-51.38735 -12.34825,-50.0587 -15.06495,-48.69725 -17.96675,-47.23965 -20.735500000000002,-45.84955 -23.42535,-44.50035 -26.2219,-43.097300000000004" speed="36.11111111111111" width="3.675404375031404"/>
	</edge>
	<edge from="22" function="normal" id="3640" length="10.509859510002975" numLanes="2" priority="1" speed="36.11111111111111" spreadType="center" to="23">
		<lane allow="moped bicycle pedestrian custom1 trailer evehicle rail_urban ship private truck vip custom2 authority delivery rail_electric taxi tram army hov coach motorcycle passenger bus rail emergency" index="0" length="10.509859510002975" shape="-24.6703,-40.0222 -34.5038,-35.2008" speed="36.11111111111111" width="3.1673785817296913"/>
		<lane allow="moped bicycle pedestrian custom1 trailer evehicle rail_urban ship private truck vip custom2 authority delivery rail_electric taxi tram army hov coach motorcycle passenger bus rail emergency" index="1" length="10.509859510002975" shape="-26.2219,-43.097300000000004 -35.6395,-38.4319" speed="36.11111111111111" width="3.675404375031404"/>
	</edge>
	<edge from="23" function="normal" id="3517" length="14.496753904957338" numLanes="3" priority="1" speed="36.11111111111111" spreadType="center" to="24">
		<lane allow="moped bicycle pedestrian custom1 trailer evehicle rail_urban ship private truck vip custom2 authority delivery rail_electric taxi tram army hov coach motorcycle passenger bus rail emergency" index="0" length="14.496753904957338" shape="-32.7865,-30.746850000000002 -42.0,-26.307450000000003 -45.7485,-24.2636" speed="36.11111111111111" width="5.130906839926057"/>
		<lane allow="moped bicycle pedestrian custom1 trailer evehicle rail_urban ship private truck vip custom2 authority delivery rail_electric taxi tram army hov coach motorcycle passenger bus rail emergency" index="1" length="14.496753904957338" shape="-34.5038,-35.2008 -43.89425,-30.15875 -47.57975,-27.95505" speed="36.11111111111111" width="3.110520139783696"/>
		<lane allow="moped bicycle pedestrian custom1 trailer evehicle rail_urban ship private truck vip custom2 authority delivery rail_electric taxi tram army hov coach motorcycle passenger bus rail emergency" index="2" length="14.496753904957338" shape="-35.6395,-38.4319 -45.4212,-33.184250000000006 -49.0866,-30.992599999999996" speed="36.11111111111111" width="3.664585112942531"/>
	</edge>
	<edge from="20" function="normal" id="3668" length="38.24329000786906" numLanes="1" priority="1" speed="36.11111111111111" spreadType="center" to="15">
		<lane allow="moped bicycle pedestrian custom1 trailer evehicle rail_urban ship private vip custom2 authority delivery rail_electric taxi tram army hov coach motorcycle passenger rail emergency" index="0" length="38.24329000786906" shape="1.8723,-57.191 -1.46475,-56.082300000000004 -4.398899999999999,-55.275450000000006 -6.89455,-54.52785 -9.309899999999999,-54.2243 -11.51175,-54.13935 -13.04795,-54.267700000000005 -15.0182,-54.4745 -16.622300000000003,-54.75185 -18.5701,-55.065200000000004 -20.3788,-55.822199999999995 -21.9147,-57.0723 -23.35435,-58.981899999999996 -26.054650000000002,-62.65965 -29.82995,-67.85505" speed="36.11111111111111" width="3.0119886487169896"/>
	</edge>
	<edge from="20" function="normal" id="3602" length="16.407319351256646" numLanes="1" priority="1" speed="36.11111111111111" spreadType="center" to="6">
		<lane allow="moped bicycle pedestrian custom1 trailer evehicle rail_urban ship private vip custom2 authority delivery rail_electric taxi tram army hov coach motorcycle passenger rail emergency" index="0" length="16.407319351256646" shape="4.84495,-50.88495 2.99235,-49.6008 1.8422999999999998,-48.384100000000004 0.9145999999999999,-46.7551 0.33714999999999995,-44.9464 0.27925,-43.57595 0.6417,-41.4497 1.4928000000000001,-39.07445 2.5418000000000003,-36.6366" speed="36.11111111111111" width="2.934720000272599"/>
	</edge>
	<edge from="9" function="normal" id="3718" length="22.83123774153203" numLanes="1" priority="1" speed="36.11111111111111" spreadType="center" to="25">
		<lane allow="moped bicycle pedestrian custom1 trailer evehicle rail_urban ship private vip custom2 authority delivery rail_electric taxi tram army hov coach motorcycle passenger rail emergency" index="0" length="22.83123774153203" shape="27.2089,13.117799999999999 29.8306,16.4895 31.89535,18.4047 34.489149999999995,19.578400000000002 39.11745,19.9823 47.3674,20.11955" speed="36.11111111111111" width="3.157633506282832"/>
	</edge>
	<edge from="25" function="normal" id="3500" length="9.586145870473699" numLanes="1" priority="1" speed="36.11111111111111" spreadType="center" to="26">
		<lane allow="moped bicycle pedestrian custom1 trailer evehicle rail_urban ship private truck vip custom2 authority delivery rail_electric taxi tram army hov coach motorcycle passenger bus rail emergency" index="0" length="9.586145870473699" shape="47.3674,20.11955 56.9482,19.79945" speed="36.11111111111111" width="5.358070392408074"/>
	</edge>
	<edge from="27" function="normal" id="3555" length="8.747302513489485" numLanes="4" priority="1" speed="36.11111111111111" spreadType="center" to="28">
		<lane allow="moped bicycle pedestrian custom1 trailer evehicle rail_urban ship private truck vip custom2 authority delivery rail_electric taxi tram army hov coach motorcycle passenger bus rail emergency" index="0" length="8.747302513489485" shape="-45.9833,-142.74779999999998 -42.0071,-134.95645000000002" speed="36.11111111111111" width="3.5111446353005746"/>
		<lane allow="moped bicycle pedestrian custom1 trailer evehicle rail_urban ship private truck vip custom2 authority delivery rail_electric taxi tram army hov coach motorcycle passenger bus rail emergency" index="1" length="8.747302513489485" shape="-48.927099999999996,-141.2366 -44.896699999999996,-133.35465" speed="36.11111111111111" width="2.9942633818687394"/>
		<lane allow="moped bicycle pedestrian custom1 trailer evehicle rail_urban ship private truck vip custom2 authority delivery rail_electric taxi tram army hov coach motorcycle passenger bus rail emergency" index="2" length="8.747302513489485" shape="-51.626599999999996,-139.85084999999998 -47.538399999999996,-131.8175" speed="36.11111111111111" width="3.012211639310895"/>
		<lane allow="moped bicycle pedestrian custom1 trailer evehicle rail_urban ship private truck vip custom2 authority delivery rail_electric taxi tram army hov coach motorcycle passenger bus rail emergency" index="3" length="8.747302513489485" shape="-54.40455,-138.42475000000002 -50.223600000000005,-130.3791" speed="36.11111111111111" width="3.0805742451692346"/>
	</edge>
	<edge from="28" function="normal" id="3559" length="17.692935382095456" numLanes="5" priority="1" speed="36.11111111111111" spreadType="center" to="29">
		<lane allow="moped bicycle pedestrian custom1 trailer evehicle rail_urban ship private truck vip custom2 authority delivery rail_electric taxi tram army hov coach motorcycle passenger bus rail emergency" index="0" length="17.692935382095456" shape="-42.0071,-134.95645000000002 -38.6614,-127.9888 -34.15235,-118.91" speed="36.11111111111111" width="3.5111446353005746"/>
		<lane allow="moped bicycle pedestrian custom1 trailer evehicle rail_urban ship private truck vip custom2 authority delivery rail_electric taxi tram army hov coach motorcycle passenger bus rail emergency" index="1" length="17.692935382095456" shape="-44.896699999999996,-133.35465 -41.5019,-126.42949999999999 -36.9416,-117.31895" speed="36.11111111111111" width="2.8911201583469404"/>
		<lane allow="moped bicycle pedestrian custom1 trailer evehicle rail_urban ship private truck vip custom2 authority delivery rail_electric taxi tram army hov coach motorcycle passenger bus rail emergency" index="2" length="17.692935382095456" shape="-47.538399999999996,-131.8175 -44.191900000000004,-125.03014999999999 -39.631600000000006,-115.91964999999999" speed="36.11111111111111" width="3.012211639310895"/>
		<lane allow="moped bicycle pedestrian custom1 trailer evehicle rail_urban ship private truck vip custom2 authority delivery rail_electric taxi tram army hov coach motorcycle passenger bus rail emergency" index="3" length="17.692935382095456" shape="-50.223600000000005,-130.3791 -46.86275,-123.66895 -42.302400000000006,-114.5584" speed="36.11111111111111" width="2.8198292501497306"/>
		<lane allow="moped bicycle pedestrian custom1 trailer evehicle rail_urban ship private truck vip custom2 authority delivery rail_electric taxi tram army hov coach motorcycle passenger rail emergency" index="4" length="17.692935382095456" shape="-50.223600000000005,-130.3791 -48.391000000000005,-122.64394999999999 -44.91015,-113.10565" speed="36.11111111111111" width="2.9068515975192115"/>
	</edge>
	<edge from="29" function="normal" id="3568" length="47.086685123121356" numLanes="5" priority="1" speed="36.11111111111111" spreadType="center" to="30">
		<lane allow="moped bicycle pedestrian custom1 trailer evehicle rail_urban ship private truck vip custom2 authority delivery rail_electric taxi tram army hov coach motorcycle passenger bus rail emergency" index="0" length="47.086685123121356" shape="-34.15235,-118.91 -29.95335,-110.455 -25.695700000000002,-101.88045 -21.25725,-92.94445 -16.95865,-84.48349999999999 -12.773150000000001,-76.83439999999999" speed="36.11111111111111" width="3.346148869969773"/>