<!-- generated on 2020-12-18 16:00:53.983961 by ipykernel_launcher.py v1_2_0+5214-53edc58fcd
-->
<nodes>
	<node id="1" type="from" x="57.15885" y="24.8595"/>
	<node id="2" type="to" x="47.5781" y="25.1796"/>
	<node id="3" type="to" x="40.12065" y="39.24195"/>
	<node id="4" type="from" x="-52.257450000000006" y="-37.3846"/>
	<node id="5" type="to" x="-38.238099999999996" y="-44.350766666666665"/>
	<node id="6" type="to" x="-2.9848500000000002" y="-33.876900000000006"/>
	<node id="7" type="to" x="10.7158" y="-13.087483333333333"/>
	<node id="8" type="to" x="14.528483333333334" y="-5.498166666666666"/>
	<node id="9" type="to" x="24.421750000000003" y="14.455066666666667"/>
	<node id="10" type="to" x="37.26305" y="40.645716666666665"/>
	<node id="11" type="to" x="-29.89425" y="-50.37775"/>
	<node id="12" type="to" x="-7.787375000000001" y="-61.761874999999996"/>
	<node id="13" type="to" x="6.699925" y="-68.9686"/>
	<node id="14" type="to" x="21.417550000000002" y="-78.22695"/>
	<node id="15" type="to" x="-35.321650000000005" y="-64.97245"/>
	<node id="16" type="to" x="-61.48095" y="-134.79205000000002"/>
	<node id="17" type="from" x="26.722075" y="-67.430625"/>
	<node id="18" type="to" x="14.458875" y="-61.4356"/>
	<node id="19" type="to" x="9.314066666666667" y="-56.9261"/>
	<node id="20" type="to" x="3.3708166666666664" y="-53.99581666666668"/>
	<node id="21" type="to" x="-3.3587249999999997" y="-52.56565"/>
	<node id="22" type="to" x="-25.4461" y="-41.55975"/>
	<node id="23" type="to" x="-35.07165" y="-36.81635"/>
	<node id="24" type="to" x="-47.47161666666667" y="-27.73708333333333"/>
	<node id="25" type="to" x="47.3674" y="20.11955"/>
	<node id="26" type="to" x="56.9482" y="19.79945"/>
	<node id="27" type="from" x="-50.235387499999995" y="-140.565"/>
	<node id="28" type="to" x="-46.16645" y="-132.626925"/>
	<node id="29" type="to" x="-39.58762" y="-115.96252999999999"/>
	<node id="30" type="to" x="-18.5328" y="-73.79776000000001"/>
	<node id="31" type="to" x="-13.383316666666667" y="-62.723833333333324"/>
	<node id="32" type="to" x="-6.0233" y="-47.348333333333336"/>
	<node id="33" type="from" x="26.38766" y="45.98798000000001"/>
	<node id="34" type="to" x="13.42902" y="19.613059999999997"/>
	<node id="35" type="to" x="3.6674499999999997" y="-0.06393999999999993"/>
	<node id="36" type="to" x="-1.5067083333333333" y="-6.979516666666666"/>
	<node id="37" type="to" x="-12.502925" y="-29.075491666666668"/>
	<node id="38" type="to" x="-19.835" y="-40.597433333333335"/>
	<node id="39" type="to" x="-27.161299999999997" y="-55.491616666666665"/>
</nodes>
