<routes>
	<vehicle depart="0.1" departLane="0" departPos="39.03944375788267" departSpeed="15.985697" id="354" type="bus">
		<route edges=":34_5 78024 78027"/>
	</vehicle>
	<vehicle depart="0.1" departLane="0" departPos="29.70332332198743" departSpeed="1.4578396" id="325" type="passenger">
		<route edges="77394 78024"/>
	</vehicle>
	<vehicle depart="0.1" departLane="0" departPos="21.80185376984561" departSpeed="0.3947882" id="331" type="passenger">
		<route edges="77394 78024"/>
	</vehicle>
	<vehicle depart="0.1" departLane="0" departPos="6.654655221187247" departSpeed="2.257383" id="348" type="passenger">
		<route edges=":34_0 78020"/>
	</vehicle>
	<vehicle depart="0.1" departLane="0" departPos="17.495625845341202" departSpeed="15.265646" id="355" type="passenger">
		<route edges=":34_5 78024 78027"/>
	</vehicle>
	<vehicle depart="0.1" departLane="0" departPos="55.913734128376085" departSpeed="13.366652" id="357" type="passenger">
		<route edges="78021 77393"/>
	</vehicle>
</routes>
