<!-- generated on Tue Feb  9 22:03:48 2021 by Eclipse SUMO netconvert Version 1.8.0
<configuration xmlns:xsi="http://www.w3.org/2001/XMLSchema-instance" xsi:noNamespaceSchemaLocation="http://sumo.dlr.de/xsd/netconvertConfiguration.xsd">

    <input>
        <node-files value="./converted_scenarios/scenario-factory/BEL_Wervik-3_5_I-1-1/BEL_Wervik-3_5_I-1-1.nod.xml"/>
        <edge-files value="./converted_scenarios/scenario-factory/BEL_Wervik-3_5_I-1-1/BEL_Wervik-3_5_I-1-1.edg.xml"/>
        <connection-files value="./converted_scenarios/scenario-factory/BEL_Wervik-3_5_I-1-1/BEL_Wervik-3_5_I-1-1.con.xml"/>
        <tllogic-files value="./converted_scenarios/scenario-factory/BEL_Wervik-3_5_I-1-1/BEL_Wervik-3_5_I-1-1.tll.xml"/>
        <type-files value="/home/zen/commonroad-interactive-benchmarks/install/commonroad-map-tool/crmapconverter/sumo_map/templates/DEU.typ.xml"/>
    </input>

    <output>
        <output-file value="./converted_scenarios/scenario-factory/BEL_Wervik-3_5_I-1-1/BEL_Wervik-3_5_I-1-1.net.xml"/>
    </output>

    <processing>
        <geometry.remove.keep-edges.explicit value="true"/>
        <geometry.avoid-overlap value="true"/>
        <offset.disable-normalization value="true"/>
    </processing>

    <junctions>
        <no-turnarounds value="true"/>
        <junctions.internal-link-detail value="20"/>
    </junctions>

    <report>
        <aggregate-warnings value="5"/>
    </report>

    <random_number>
        <seed value="1234"/>
    </random_number>

</configuration>
--><net xmlns:xsi="http://www.w3.org/2001/XMLSchema-instance" version="1.6" junctionCornerDetail="5" junctionLinkDetail="20" limitTurnSpeed="5.50" xsi:noNamespaceSchemaLocation="http://sumo.dlr.de/xsd/net_file.xsd">

    <location netOffset="0.00,0.00" convBoundary="226.12,-18.58,481.20,359.41" origBoundary="226.12,-18.58,481.20,359.41" projParameter="!"/>

    <type id="highway.bridleway" priority="1" speed="2.78" allow="pedestrian" oneway="1" width="2.00"/>
    <type id="highway.bus_guideway" priority="1" speed="27.78" allow="bus" oneway="1"/>
    <type id="highway.cycleway" priority="1" speed="8.33" allow="bicycle" oneway="0" width="1.00"/>
    <type id="highway.footway" priority="1" speed="2.78" allow="pedestrian" oneway="1" width="2.00"/>
    <type id="highway.ford" priority="1" speed="2.78" allow="army" oneway="0"/>
    <type id="highway.living_street" priority="2" speed="2.78" disallow="tram rail_urban rail rail_electric rail_fast ship" oneway="0"/>
    <type id="highway.motorway" priority="14" speed="39.44" allow="private emergency authority army vip passenger hov taxi bus coach delivery truck trailer motorcycle evehicle custom1 custom2" oneway="1"/>
    <type id="highway.motorway_link" priority="9" speed="22.22" allow="private emergency authority army vip passenger hov taxi bus coach delivery truck trailer motorcycle evehicle custom1 custom2" oneway="1"/>
    <type id="highway.path" priority="1" speed="2.78" allow="pedestrian bicycle" oneway="0" width="2.00"/>
    <type id="highway.pedestrian" priority="1" speed="2.78" allow="pedestrian" oneway="1" width="2.00"/>
    <type id="highway.primary" priority="12" speed="27.78" disallow="pedestrian tram rail_urban rail rail_electric rail_fast ship" oneway="0"/>
    <type id="highway.primary_link" priority="7" speed="22.22" disallow="pedestrian tram rail_urban rail rail_electric rail_fast ship" oneway="0"/>
    <type id="highway.raceway" priority="15" speed="83.33" allow="vip" oneway="0"/>
    <type id="highway.residential" priority="3" speed="13.89" disallow="pedestrian tram rail_urban rail rail_electric rail_fast ship" oneway="0"/>
    <type id="highway.secondary" priority="11" speed="27.78" disallow="pedestrian tram rail_urban rail rail_electric rail_fast ship" oneway="0"/>
    <type id="highway.secondary_link" priority="6" speed="22.22" disallow="pedestrian tram rail_urban rail rail_electric rail_fast ship" oneway="0"/>
    <type id="highway.service" priority="1" speed="5.56" allow="pedestrian delivery bicycle" oneway="0"/>
    <type id="highway.stairs" priority="1" speed="1.39" allow="pedestrian" oneway="1" width="2.00"/>
    <type id="highway.step" priority="1" speed="1.39" allow="pedestrian" oneway="1" width="2.00"/>
    <type id="highway.steps" priority="1" speed="1.39" allow="pedestrian" oneway="1" width="2.00"/>
    <type id="highway.tertiary" priority="10" speed="22.22" disallow="pedestrian tram rail_urban rail rail_electric rail_fast ship" oneway="0"/>
    <type id="highway.tertiary_link" priority="5" speed="22.22" disallow="pedestrian tram rail_urban rail rail_electric rail_fast ship" oneway="0"/>
    <type id="highway.track" priority="1" speed="5.56" allow="pedestrian motorcycle moped bicycle" oneway="0"/>
    <type id="highway.trunk" priority="13" speed="27.78" disallow="pedestrian bicycle tram rail_urban rail rail_electric rail_fast ship" oneway="0"/>
    <type id="highway.trunk_link" priority="8" speed="22.22" disallow="pedestrian bicycle tram rail_urban rail rail_electric rail_fast ship" oneway="0"/>
    <type id="highway.unclassified" priority="4" speed="13.89" disallow="pedestrian tram rail_urban rail rail_electric rail_fast ship" oneway="0"/>
    <type id="highway.unsurfaced" priority="1" speed="8.33" disallow="tram rail_urban rail rail_electric rail_fast ship" oneway="0"/>
    <type id="railway.highspeed" priority="21" speed="69.44" allow="rail_fast" oneway="1"/>
    <type id="railway.light_rail" priority="19" speed="27.78" allow="rail_urban" oneway="1"/>
    <type id="railway.preserved" priority="16" speed="27.78" allow="rail" oneway="1"/>
    <type id="railway.rail" priority="20" speed="44.44" allow="rail" oneway="1"/>
    <type id="railway.subway" priority="18" speed="27.78" allow="rail_urban" oneway="1"/>
    <type id="railway.tram" priority="17" speed="13.89" allow="tram" oneway="1"/>

    <edge id=":69_0" function="internal">
        <lane id=":69_0_0" index="0" disallow="pedestrian tram rail_urban rail rail_electric rail_fast ship" speed="11.14" length="28.31" width="3.50" shape="314.94,206.02 311.78,205.20 309.62,204.87 307.45,204.78 305.28,204.96 304.21,205.17 303.16,205.47 302.14,205.85 301.16,206.32 300.22,206.87 299.34,207.51 298.50,208.21 297.02,209.80 295.75,211.57 294.69,213.47 293.80,215.46 293.07,217.51"/>
    </edge>
    <edge id=":69_1" function="internal">
        <lane id=":69_1_0" index="0" disallow="pedestrian tram rail_urban rail rail_electric rail_fast ship" speed="11.44" length="29.36" width="3.50" shape="314.94,206.02 311.17,204.66 308.74,203.56 306.40,202.28 304.20,200.76 302.22,198.98 301.35,197.97 300.57,196.88 299.90,195.73 299.37,194.50 298.97,193.23 298.71,191.92 298.59,190.59 298.61,189.26 298.73,187.93 299.29,185.32"/>
    </edge>
    <edge id=":69_2" function="internal">
        <lane id=":69_2_0" index="0" disallow="pedestrian tram rail_urban rail rail_electric rail_fast ship" speed="10.37" length="23.93" width="3.50" shape="302.66,186.24 302.21,188.41 302.12,189.43 302.13,190.47 302.24,191.48 302.46,192.48 302.79,193.43 303.23,194.36 303.77,195.23 304.40,196.06 305.09,196.83 306.76,198.27 308.61,199.50 310.61,200.57 312.70,201.50 315.99,202.68"/>
    </edge>
    <edge id=":69_3" function="internal">
        <lane id=":69_3_0" index="0" disallow="pedestrian tram rail_urban rail rail_electric rail_fast ship" speed="36.11" length="32.71" width="3.50" shape="302.66,186.24 299.37,197.41 293.07,217.51"/>
    </edge>
    <edge id=":69_4" function="internal">
        <lane id=":69_4_0" index="0" disallow="pedestrian tram rail_urban rail rail_electric rail_fast ship" speed="36.11" length="32.55" width="3.50" shape="289.74,216.44 296.02,196.40 299.29,185.32"/>
    </edge>
    <edge id=":69_5" function="internal">
        <lane id=":69_5_0" index="0" disallow="pedestrian tram rail_urban rail rail_electric rail_fast ship" speed="12.15" length="33.87" width="3.50" shape="289.74,216.44 290.59,214.07 291.62,211.75 292.88,209.51 294.40,207.39 296.18,205.48 297.23,204.59 298.32,203.81 299.49,203.13 300.71,202.55 301.97,202.07 303.26,201.71 304.60,201.45 307.19,201.24 309.79,201.35 312.34,201.73 315.99,202.68"/>
    </edge>
    <edge id=":70_0" function="internal">
        <lane id=":70_0_0" index="0" disallow="pedestrian tram rail_urban rail rail_electric rail_fast ship" speed="11.39" length="28.73" width="3.50" shape="336.04,143.93 332.83,143.08 330.65,142.72 328.45,142.59 326.24,142.72 324.08,143.15 323.03,143.49 322.01,143.92 321.03,144.43 320.09,145.02 319.21,145.68 317.61,147.20 316.22,148.92 315.04,150.79 314.04,152.76 313.20,154.81"/>
    </edge>
    <edge id=":70_1" function="internal">
        <lane id=":70_1_0" index="0" disallow="pedestrian tram rail_urban rail rail_electric rail_fast ship" speed="12.18" length="34.13" width="3.50" shape="336.04,143.93 332.36,142.53 330.01,141.36 327.80,139.95 325.78,138.27 324.86,137.33 324.02,136.32 323.27,135.24 322.62,134.11 322.07,132.91 321.63,131.68 321.29,130.41 320.91,127.81 320.90,125.19 321.18,122.58 321.70,120.01 322.42,117.47"/>
    </edge>
    <edge id=":70_2" function="internal">
        <lane id=":70_2_0" index="0" disallow="pedestrian tram rail_urban rail rail_electric rail_fast ship" speed="11.18" length="28.56" width="3.50" shape="325.76,118.53 325.12,120.74 324.67,122.96 324.43,125.17 324.45,127.36 324.76,129.52 325.03,130.51 325.38,131.50 325.82,132.45 326.35,133.37 326.95,134.23 327.63,135.05 328.35,135.79 330.05,137.20 331.91,138.38 333.90,139.38 337.11,140.60"/>
    </edge>
    <edge id=":70_3" function="internal">
        <lane id=":70_3_0" index="0" disallow="pedestrian tram rail_urban rail rail_electric rail_fast ship" speed="36.11" length="38.40" width="3.50" shape="325.76,118.53 320.19,135.28 314.28,151.89 313.20,154.81"/>
    </edge>
    <edge id=":70_4" function="internal">
        <lane id=":70_4_0" index="0" disallow="pedestrian tram rail_urban rail rail_electric rail_fast ship" speed="36.11" length="38.22" width="3.50" shape="309.92,153.59 310.99,150.69 316.88,134.14 322.42,117.47"/>
    </edge>
    <edge id=":70_5" function="internal">
        <lane id=":70_5_0" index="0" disallow="pedestrian tram rail_urban rail rail_electric rail_fast ship" speed="12.38" length="34.14" width="3.50" shape="309.92,153.59 310.89,151.23 312.05,148.94 313.45,146.74 315.10,144.68 317.01,142.87 318.11,142.03 319.25,141.31 320.46,140.68 321.71,140.15 323.02,139.73 325.62,139.21 328.26,139.05 330.87,139.21 333.43,139.62 337.11,140.60"/>
    </edge>
    <edge id=":71_0" function="internal">
        <lane id=":71_0_0" index="0" disallow="pedestrian tram rail_urban rail rail_electric rail_fast ship" speed="10.33" length="24.06" width="3.50" shape="299.36,185.08 299.80,182.94 299.90,181.85 299.89,180.76 299.76,179.67 299.52,178.60 299.15,177.57 298.67,176.59 298.09,175.67 297.42,174.81 296.66,174.01 295.85,173.28 294.08,171.99 292.18,170.91 290.20,169.99 287.12,168.86 286.07,168.53"/>
    </edge>
    <edge id=":71_1" function="internal">
        <lane id=":71_1_0" index="0" disallow="pedestrian tram rail_urban rail rail_electric rail_fast ship" speed="36.11" length="32.51" width="3.50" shape="299.36,185.08 302.41,175.06 306.44,163.15 309.67,154.26"/>
    </edge>
    <edge id=":71_2" function="internal">
        <lane id=":71_2_0" index="0" disallow="pedestrian tram rail_urban rail rail_electric rail_fast ship" speed="36.11" length="32.21" width="3.50" shape="312.95,155.47 309.74,164.31 305.74,176.12 302.73,186.01"/>
    </edge>
    <edge id=":71_3" function="internal">
        <lane id=":71_3_0" index="0" disallow="pedestrian tram rail_urban rail rail_electric rail_fast ship" speed="12.43" length="33.78" width="3.50" shape="312.95,155.47 311.38,159.08 310.10,161.34 308.59,163.45 306.83,165.35 304.82,166.99 303.72,167.68 302.57,168.28 301.37,168.79 298.88,169.52 296.31,169.87 293.72,169.91 291.14,169.66 288.58,169.19 286.07,168.53"/>
    </edge>
    <edge id=":71_4" function="internal">
        <lane id=":71_4_0" index="0" disallow="pedestrian tram rail_urban rail rail_electric rail_fast ship" speed="11.43" length="28.45" width="3.50" shape="287.06,165.17 289.26,165.75 291.47,166.16 293.68,166.37 295.86,166.35 297.99,166.06 300.07,165.46 301.00,165.06 301.94,164.57 302.80,164.03 304.48,162.68 305.94,161.10 307.21,159.32 308.30,157.40 309.67,154.26"/>
    </edge>
    <edge id=":71_5" function="internal">
        <lane id=":71_5_0" index="0" disallow="pedestrian tram rail_urban rail rail_electric rail_fast ship" speed="11.40" length="29.56" width="3.50" shape="287.06,165.17 288.30,165.56 291.85,166.89 294.20,168.00 296.46,169.33 298.55,170.93 299.57,171.88 300.48,172.91 301.30,174.03 302.01,175.24 302.59,176.53 303.02,177.88 303.29,179.26 303.42,180.66 303.41,182.04 303.28,183.43 302.73,186.01"/>
    </edge>
    <edge id=":72_0" function="internal">
        <lane id=":72_0_0" index="0" disallow="pedestrian tram rail_urban rail rail_electric rail_fast ship" speed="11.13" length="28.81" width="3.50" shape="358.51,74.64 355.33,73.72 353.15,73.33 350.94,73.17 348.72,73.29 347.63,73.47 346.56,73.75 345.51,74.11 344.50,74.57 343.53,75.12 342.62,75.76 341.77,76.46 340.24,78.07 338.95,79.87 337.87,81.81 336.97,83.84 336.22,85.92"/>
    </edge>
    <edge id=":72_1" function="internal">
        <lane id=":72_1_0" index="0" disallow="pedestrian tram rail_urban rail rail_electric rail_fast ship" speed="12.25" length="34.14" width="3.50" shape="358.51,74.64 356.16,73.73 353.84,72.64 351.60,71.34 349.49,69.78 347.59,67.96 346.70,66.90 345.92,65.79 345.24,64.62 344.66,63.38 344.18,62.11 343.82,60.77 343.42,58.16 343.39,55.51 343.67,52.92 344.20,50.40 344.91,47.97"/>
    </edge>
    <edge id=":72_2" function="internal">
        <lane id=":72_2_0" index="0" disallow="pedestrian tram rail_urban rail rail_electric rail_fast ship" speed="11.25" length="28.61" width="3.50" shape="348.24,49.05 347.62,51.16 347.17,53.32 346.93,55.51 346.96,57.72 347.29,59.89 347.59,60.95 347.97,61.99 348.44,62.98 349.00,63.93 349.64,64.83 350.35,65.68 351.94,67.20 353.71,68.51 355.62,69.61 357.62,70.55 359.64,71.33"/>
    </edge>
    <edge id=":72_3" function="internal">
        <lane id=":72_3_0" index="0" disallow="pedestrian tram rail_urban rail rail_electric rail_fast ship" speed="36.11" length="38.78" width="3.50" shape="348.24,49.05 342.23,67.49 336.22,85.92"/>
    </edge>
    <edge id=":72_4" function="internal">
        <lane id=":72_4_0" index="0" disallow="pedestrian tram rail_urban rail rail_electric rail_fast ship" speed="36.11" length="38.79" width="3.50" shape="332.89,84.85 338.90,66.40 344.91,47.97"/>
    </edge>
    <edge id=":72_5" function="internal">
        <lane id=":72_5_0" index="0" disallow="pedestrian tram rail_urban rail rail_electric rail_fast ship" speed="12.13" length="34.46" width="3.50" shape="332.89,84.85 333.75,82.44 334.80,80.08 336.08,77.79 337.64,75.64 339.47,73.71 340.55,72.81 341.67,72.03 342.87,71.35 344.13,70.78 345.43,70.33 346.75,69.99 348.12,69.76 350.77,69.62 353.40,69.81 355.98,70.27 359.64,71.33"/>
    </edge>
    <edge id=":73_0" function="internal">
        <lane id=":73_0_0" index="0" disallow="pedestrian tram rail_urban rail rail_electric rail_fast ship" speed="12.59" length="28.44" width="3.50" shape="476.16,192.48 475.88,191.48 475.15,189.47 474.26,187.59 473.17,185.82 471.89,184.21 470.42,182.76 468.78,181.51 467.00,180.45 465.09,179.59 463.09,178.91 461.03,178.39 457.82,177.89 454.56,177.69"/>
    </edge>
    <edge id=":73_1" function="internal">
        <lane id=":73_1_0" index="0" disallow="pedestrian tram rail_urban rail rail_electric rail_fast ship" speed="12.22" length="33.87" width="3.50" shape="476.22,157.21 475.82,160.95 475.30,163.46 474.53,165.93 473.47,168.33 472.08,170.55 471.23,171.63 470.30,172.61 469.29,173.50 468.22,174.31 467.05,175.04 464.68,176.16 462.18,176.95 459.64,177.43 457.10,177.66 454.56,177.69"/>
    </edge>
    <edge id=":73_2" function="internal">
        <lane id=":73_2_0" index="0" disallow="pedestrian tram rail_urban rail rail_electric rail_fast ship" speed="11.22" length="28.38" width="3.50" shape="454.66,174.19 456.84,174.17 459.02,173.97 461.16,173.56 463.25,172.90 465.22,171.96 466.14,171.38 467.02,170.72 467.83,169.99 468.58,169.20 469.26,168.34 470.41,166.49 471.30,164.49 471.94,162.40 472.38,160.26 472.72,157.02"/>
    </edge>
    <edge id=":73_3" function="internal">
        <lane id=":73_3_0" index="0" disallow="pedestrian tram rail_urban rail rail_electric rail_fast ship" speed="13.53" length="32.95" width="3.50" shape="454.66,174.19 458.31,174.43 461.93,175.00 464.29,175.59 466.60,176.40 468.81,177.42 470.90,178.68 472.83,180.18 474.56,181.90 476.07,183.82 477.34,185.90 478.38,188.11 479.21,190.40 479.55,191.58"/>
    </edge>
    <edge id=":74_0" function="internal">
        <lane id=":74_0_0" index="0" disallow="pedestrian tram rail_urban rail rail_electric rail_fast ship" speed="36.11" length="39.21" width="3.50" shape="295.07,259.27 281.13,250.43 264.35,240.27 261.69,238.70"/>
    </edge>
    <edge id=":74_1" function="internal">
        <lane id=":74_1_0" index="0" disallow="pedestrian tram rail_urban rail rail_electric rail_fast ship" speed="14.02" length="36.40" width="3.50" shape="295.07,259.27 294.06,258.58 292.16,257.10 290.38,255.43 288.77,253.56 287.37,251.52 286.21,249.33 285.32,247.02 284.70,244.64 284.32,242.22 284.18,239.79 284.25,237.37 284.66,233.82 285.38,230.34 286.36,226.94"/>
    </edge>
    <edge id=":74_2" function="internal">
        <lane id=":74_2_0" index="0" disallow="pedestrian tram rail_urban rail rail_electric rail_fast ship" speed="13.13" length="31.81" width="3.50" shape="289.69,228.01 288.81,231.08 288.15,234.19 287.77,237.35 287.70,239.47 287.81,241.58 288.11,243.68 288.63,245.74 289.37,247.73 290.34,249.61 291.52,251.37 292.90,252.98 294.44,254.44 296.11,255.75 296.98,256.34"/>
    </edge>
    <edge id=":74_3" function="internal">
        <lane id=":74_3_0" index="0" disallow="pedestrian tram rail_urban rail rail_electric rail_fast ship" speed="11.67" length="36.52" width="3.50" shape="289.69,228.01 288.20,231.96 286.96,234.48 285.46,236.86 284.60,237.97 283.66,239.01 282.62,239.96 281.50,240.80 280.30,241.52 279.02,242.10 277.68,242.53 276.30,242.79 274.90,242.91 273.50,242.89 272.10,242.75 269.36,242.15 266.71,241.22 264.15,240.05 261.69,238.70"/>
    </edge>
    <edge id=":74_4" function="internal">
        <lane id=":74_4_0" index="0" disallow="pedestrian tram rail_urban rail rail_electric rail_fast ship" speed="10.63" length="30.08" width="3.50" shape="263.45,235.67 265.60,236.85 267.79,237.86 270.02,238.64 272.32,239.14 273.41,239.26 274.52,239.27 275.62,239.18 276.68,238.97 277.70,238.65 278.68,238.21 279.61,237.65 280.48,236.99 281.30,236.24 282.06,235.40 282.75,234.51 284.02,232.50 285.07,230.37 286.36,226.94"/>
    </edge>
    <edge id=":74_5" function="internal">
        <lane id=":74_5_0" index="0" disallow="pedestrian tram rail_urban rail rail_electric rail_fast ship" speed="36.11" length="39.39" width="3.50" shape="263.45,235.67 266.15,237.27 282.98,247.46 296.98,256.34"/>
    </edge>
    <edge id=":75_0" function="internal">
        <lane id=":75_0_0" index="0" disallow="pedestrian tram rail_urban rail rail_electric rail_fast ship" speed="9.19" length="24.48" width="3.50" shape="368.52,306.16 367.48,305.62 366.41,305.17 365.29,304.84 364.14,304.66 362.97,304.68 361.83,304.91 360.76,305.37 359.79,306.02 358.94,306.81 358.19,307.71 357.54,308.67 356.97,309.69 356.47,310.75 355.63,312.92 354.96,315.16 354.17,318.57 353.96,319.70"/>
    </edge>
    <edge id=":75_1" function="internal">
        <lane id=":75_1_0" index="0" disallow="pedestrian tram rail_urban rail rail_electric rail_fast ship" speed="36.11" length="30.01" width="3.50" shape="368.52,306.16 366.71,305.12 356.08,298.74 342.97,290.42"/>
    </edge>
    <edge id=":75_2" function="internal">
        <lane id=":75_2_0" index="0" disallow="pedestrian tram rail_urban rail rail_electric rail_fast ship" speed="36.11" length="29.80" width="3.50" shape="344.87,287.49 357.90,295.76 368.48,302.10 370.24,303.11"/>
    </edge>
    <edge id=":75_3" function="internal">
        <lane id=":75_3_0" index="0" disallow="pedestrian tram rail_urban rail rail_electric rail_fast ship" speed="15.14" length="35.58" width="3.50" shape="344.88,287.49 346.81,288.90 348.56,290.51 350.10,292.31 351.42,294.28 352.52,296.38 353.38,298.59 354.04,300.87 354.67,304.37 354.94,307.91 354.91,311.47 354.50,316.20 353.96,319.70"/>
    </edge>
    <edge id=":75_4" function="internal">
        <lane id=":75_4_0" index="0" disallow="pedestrian tram rail_urban rail rail_electric rail_fast ship" speed="14.29" length="31.60" width="3.50" shape="350.50,319.21 351.01,315.88 351.40,311.55 351.44,308.33 351.23,305.15 350.70,302.02 350.16,300.03 349.43,298.10 348.52,296.27 347.41,294.57 346.11,293.02 344.63,291.64 342.97,290.42"/>
    </edge>
    <edge id=":75_5" function="internal">
        <lane id=":75_5_0" index="0" disallow="pedestrian tram rail_urban rail rail_electric rail_fast ship" speed="10.37" length="31.47" width="3.50" shape="350.50,319.21 350.77,317.73 351.71,313.72 352.56,311.04 353.64,308.42 354.31,307.11 355.09,305.85 356.01,304.64 357.08,303.52 358.34,302.53 359.77,301.75 361.34,301.24 362.96,301.03 364.58,301.09 366.12,301.38 367.58,301.85 368.95,302.44 370.24,303.11"/>
    </edge>
    <edge id=":76_0" function="internal">
        <lane id=":76_0_0" index="0" disallow="pedestrian tram rail_urban rail rail_electric rail_fast ship" speed="12.23" length="34.45" width="3.50" shape="393.38,321.52 390.15,319.18 388.17,317.43 386.36,315.49 384.79,313.36 384.12,312.22 383.54,311.03 383.06,309.79 382.69,308.52 382.44,307.22 382.30,305.90 382.28,304.57 382.37,303.25 382.86,300.65 383.69,298.13 384.79,295.73 386.11,293.42 386.83,292.32"/>
    </edge>
    <edge id=":76_1" function="internal">
        <lane id=":76_1_0" index="0" disallow="pedestrian tram rail_urban rail rail_electric rail_fast ship" speed="11.23" length="28.87" width="3.50" shape="389.75,294.24 389.12,295.22 387.97,297.22 387.03,299.26 386.34,301.37 385.94,303.54 385.88,304.58 385.89,305.64 386.01,306.69 386.21,307.73 386.51,308.75 386.90,309.74 387.37,310.71 387.91,311.62 389.24,313.42 390.77,315.05 392.47,316.54 395.31,318.60"/>
    </edge>
    <edge id=":76_2" function="internal">
        <lane id=":76_2_0" index="0" disallow="pedestrian tram rail_urban rail rail_electric rail_fast ship" speed="11.10" length="26.56" width="3.50" shape="389.75,294.25 387.69,297.15 385.48,299.92 383.03,302.53 381.19,304.16 379.17,305.59 378.03,306.23 376.83,306.76 375.55,307.17 374.20,307.41 372.80,307.46 371.39,307.29 370.03,306.89 368.78,306.31"/>
    </edge>
    <edge id=":76_3" function="internal">
        <lane id=":76_3_0" index="0" disallow="pedestrian tram rail_urban rail rail_electric rail_fast ship" speed="9.97" length="21.37" width="3.50" shape="370.48,303.25 371.40,303.67 372.38,303.92 373.40,303.99 374.41,303.87 375.39,303.60 376.33,303.21 377.23,302.73 378.08,302.17 379.68,300.91 381.16,299.50 383.19,297.22 385.07,294.81 386.83,292.32"/>
    </edge>

    <edge id="4527" from="69" to="74" priority="3" type="highway.residential" spreadType="center" length="11.04" shape="304.16,203.18 283.72,241.70">
        <lane id="4527_0" index="0" disallow="pedestrian tram rail_urban rail rail_electric rail_fast ship" speed="36.11" length="11.04" width="3.50" customShape="1" shape="293.07,217.51 291.38,222.77 289.69,228.02"/>
    </edge>
    <edge id="4528" from="74" to="69" priority="3" type="highway.residential" spreadType="center" length="11.05" shape="280.63,240.06 301.07,201.54">
        <lane id="4528_0" index="0" disallow="pedestrian tram rail_urban rail rail_electric rail_fast ship" speed="36.11" length="11.05" width="3.50" customShape="1" shape="286.36,226.94 288.04,221.69 289.74,216.42"/>
    </edge>
    <edge id="4530" from="71" to="69" priority="3" type="highway.residential" spreadType="center" length="0.28" shape="301.37,168.85 304.36,202.21">
        <lane id="4530_0" index="0" disallow="pedestrian tram rail_urban rail rail_electric rail_fast ship" speed="36.11" length="0.28" width="3.50" customShape="1" shape="302.73,186.01 302.65,186.28"/>
    </edge>
    <edge id="4531" from="69" to="71" priority="3" type="highway.residential" spreadType="center" length="0.28" shape="300.87,202.52 297.89,169.16">
        <lane id="4531_0" index="0" disallow="pedestrian tram rail_urban rail rail_electric rail_fast ship" speed="36.11" length="0.28" width="3.50" customShape="1" shape="299.29,185.32 299.32,185.20 299.37,185.05"/>
    </edge>
    <edge id="4533" from="70" to="71" priority="3" type="highway.residential" spreadType="center" length="0.75" shape="325.45,139.24 300.96,170.24">
        <lane id="4533_0" index="0" disallow="pedestrian tram rail_urban rail rail_electric rail_fast ship" speed="36.11" length="0.75" width="3.50" customShape="1" shape="313.20,154.81 313.07,155.16 312.94,155.51"/>
    </edge>
    <edge id="4534" from="71" to="70" priority="3" type="highway.residential" spreadType="center" length="0.74" shape="298.22,168.07 322.70,137.07">
        <lane id="4534_0" index="0" disallow="pedestrian tram rail_urban rail rail_electric rail_fast ship" speed="36.11" length="0.74" width="3.50" customShape="1" shape="309.67,154.26 309.79,153.94 309.93,153.57"/>
    </edge>
    <edge id="4536" from="72" to="70" priority="3" type="highway.residential" spreadType="center" length="34.26" shape="348.41,69.46 325.74,138.70">
        <lane id="4536_0" index="0" disallow="pedestrian tram rail_urban rail rail_electric rail_fast ship" speed="36.11" length="34.26" width="3.50" customShape="1" shape="336.22,85.92 330.98,102.24 325.75,118.54"/>
    </edge>
    <edge id="4537" from="70" to="72" priority="3" type="highway.residential" spreadType="center" length="34.28" shape="322.41,137.61 345.09,68.37">
        <lane id="4537_0" index="0" disallow="pedestrian tram rail_urban rail rail_electric rail_fast ship" speed="36.11" length="34.28" width="3.50" customShape="1" shape="322.42,117.47 327.65,101.17 332.89,84.83"/>
    </edge>
    <edge id="4539" from="48" to="72" priority="3" type="highway.residential" spreadType="center" length="70.01" shape="369.94,-17.50 348.43,69.41">
        <lane id="4539_0" index="0" disallow="pedestrian tram rail_urban rail rail_electric rail_fast ship" speed="36.11" length="70.01" width="3.50" customShape="1" shape="369.94,-17.50 366.45,-6.42 348.23,49.06"/>
    </edge>
    <edge id="4540" from="72" to="42" priority="3" type="highway.residential" spreadType="center" length="70.00" shape="345.03,68.57 366.61,-18.58">
        <lane id="4540_0" index="0" disallow="pedestrian tram rail_urban rail rail_electric rail_fast ship" speed="36.11" length="70.00" width="3.50" customShape="1" shape="344.91,47.97 363.13,-7.53 366.61,-18.58"/>
    </edge>
    <edge id="4578" from="55" to="76" priority="3" type="highway.residential" spreadType="center" length="44.57" shape="410.89,255.24 385.63,306.86">
        <lane id="4578_0" index="0" disallow="pedestrian tram rail_urban rail rail_electric rail_fast ship" speed="36.11" length="44.57" width="3.50" customShape="1" shape="410.89,255.24 409.22,260.08 407.58,264.39 405.55,268.53 401.86,275.27 397.07,283.15 389.73,294.27"/>
    </edge>
    <edge id="4579" from="76" to="54" priority="3" type="highway.residential" spreadType="center" length="43.69" shape="382.49,305.32 407.59,254.07">
        <lane id="4579_0" index="0" disallow="pedestrian tram rail_urban rail rail_electric rail_fast ship" speed="36.11" length="43.69" width="3.50" customShape="1" shape="386.83,292.32 394.07,281.34 398.79,273.60 402.41,267.00 404.36,263.01 405.95,258.84 407.59,254.07"/>
    </edge>
    <edge id="4599" from="20" to="71" priority="3" type="highway.residential" spreadType="center" length="54.00" shape="235.30,149.81 300.14,167.42">
        <lane id="4599_0" index="0" disallow="pedestrian tram rail_urban rail rail_electric rail_fast ship" speed="36.11" length="54.00" width="3.50" customShape="1" shape="235.30,149.81 261.19,157.49 287.07,165.18"/>
    </edge>
    <edge id="4600" from="71" to="3" priority="3" type="highway.residential" spreadType="center" length="53.99" shape="299.22,170.79 234.31,153.17">
        <lane id="4600_0" index="0" disallow="pedestrian tram rail_urban rail rail_electric rail_fast ship" speed="36.11" length="53.99" width="3.50" customShape="1" shape="286.07,168.53 260.19,160.85 234.31,153.17"/>
    </edge>
    <edge id="4608" from="43" to="74" priority="3" type="highway.residential" spreadType="center" length="41.28" shape="227.90,214.71 282.96,239.24">
        <lane id="4608_0" index="0" disallow="pedestrian tram rail_urban rail rail_electric rail_fast ship" speed="36.11" length="41.28" width="3.50" customShape="1" shape="227.90,214.71 245.68,225.20 263.46,235.68"/>
    </edge>
    <edge id="4609" from="74" to="35" priority="3" type="highway.residential" spreadType="center" length="41.30" shape="281.54,242.44 226.12,217.72">
        <lane id="4609_0" index="0" disallow="pedestrian tram rail_urban rail rail_electric rail_fast ship" speed="36.11" length="41.30" width="3.50" customShape="1" shape="261.69,238.70 243.90,228.21 226.12,217.72"/>
    </edge>
    <edge id="4626" from="74" to="75" priority="3" type="highway.residential" spreadType="center" length="57.16" shape="283.35,239.50 356.35,303.04">
        <lane id="4626_0" index="0" disallow="pedestrian tram rail_urban rail rail_electric rail_fast ship" speed="36.11" length="57.16" width="3.50" customShape="1" shape="296.98,256.34 320.94,271.92 344.90,287.50"/>
    </edge>
    <edge id="4627" from="75" to="74" priority="3" type="highway.residential" spreadType="center" length="57.14" shape="354.06,305.67 281.06,242.14">