<routes>
	<vehicle depart="0.1" departLane="0" departPos="14.64629376921295" departSpeed="0.64690221" id="312" type="bicycle">
		<route edges=":71_3 4600"/>
	</vehicle>
	<vehicle depart="0.1" departLane="0" departPos="2.5" departSpeed="2.8690384" id="316" type="passenger">
		<route edges=":69_0 4527"/>
	</vehicle>
	<vehicle depart="0.1" departLane="0" departPos="43.51672908542074" departSpeed="4.1929413" id="318" type="passenger">
		<route edges="4599 4534"/>
	</vehicle>
	<vehicle depart="0.1" departLane="0" departPos="37.02730761511898" departSpeed="0.77301127" id="323" type="passenger">
		<route edges="4799 4531"/>
	</vehicle>
	<vehicle depart="0.1" departLane="0" departPos="36.36757348572154" departSpeed="2.3596533" id="324" type="passenger">
		<route edges="4599 4534"/>
	</vehicle>
	<vehicle depart="0.1" departLane="0" departPos="25.3072016435286" departSpeed="1.170859" id="333" type="passenger">
		<route edges="4599 4534"/>
	</vehicle>
	<vehicle depart="0.1" departLane="0" departPos="11.623420904131587" departSpeed="6.3453424" id="354" type="passenger">
		<route edges=":71_1 4534 4658"/>
	</vehicle>
	<vehicle depart="0.1" departLane="0" departPos="2.5" departSpeed="11.445271" id="367" type="passenger">
		<route edges="4800"/>
	</vehicle>
	<vehicle depart="0.1" departLane="0" departPos="26.36827245606846" departSpeed="2.0747871" id="32" type="truck">
		<route edges=":70_0 4533 4600"/>
	</vehicle>
	<vehicle depart="0.1" departLane="0" departPos="47.83348064623908" departSpeed="1.4712039" id="321" type="truck">
		<route edges="4799 4531"/>
	</vehicle>
</routes>
