<routes>
	<vehicle depart="0.1" departLane="0" departPos="1.0" departSpeed="4.6161317" id="37" type="bicycle">
		<route edges="294 291"/>
	</vehicle>
	<vehicle depart="0.1" departLane="0" departPos="10.32168740726582" departSpeed="0.75112481" id="39" type="bicycle">
		<route edges=":84_4 297"/>
	</vehicle>
	<vehicle depart="0.1" departLane="0" departPos="9.982427498556138" departSpeed="0.73042436" id="32" type="passenger">
		<route edges=":83_4 291"/>
	</vehicle>
	<vehicle depart="0.1" departLane="0" departPos="2.5" departSpeed="0.029710919" id="35" type="passenger">
		<route edges=":84_3 680"/>
	</vehicle>
	<vehicle depart="0.1" departLane="0" departPos="18.20750687139159" departSpeed="3.0289785" id="315" type="passenger">
		<route edges=":81_1 298"/>
	</vehicle>
	<vehicle depart="0.1" departLane="0" departPos="20.48479681233837" departSpeed="0.0" id="316" type="passenger">
		<route edges=":82_2 292"/>
	</vehicle>
	<vehicle depart="0.1" departLane="0" departPos="5.031803074438771" departSpeed="0.91518769" id="320" type="passenger">
		<route edges="301 731"/>
	</vehicle>
	<vehicle depart="0.1" departLane="0" departPos="22.860990468310227" departSpeed="10.254582" id="351" type="passenger">
		<route edges="300 297 641"/>
	</vehicle>
	<vehicle depart="0.1" departLane="0" departPos="7.37483792622419" departSpeed="0.7339248" id="350" type="motorcycle">
		<route edges="681 301"/>
	</vehicle>
</routes>
