<!-- generated on 2020-12-18 16:04:29.538235 by ipykernel_launcher.py v1_2_0+5214-53edc58fcd
-->
<nodes>
	<node id="1" type="from" x="686505.8174999999" y="5334960.7"/>
	<node id="2" type="to" x="686506.2124999999" y="5335031.0"/>
	<node id="3" type="from" x="686506.3" y="5334894.0"/>
	<node id="4" type="to" x="686505.8425" y="5334942.675000001"/>
	<node id="5" type="from" x="686376.895" y="5334955.4"/>
	<node id="6" type="to" x="686496.33" y="5334949.625"/>
	<node id="7" type="from" x="686496.695" y="5334954.6"/>
	<node id="8" type="to" x="686377.0025" y="5334960.4"/>
</nodes>
