<!-- generated on Wed Feb 10 12:34:27 2021 by Eclipse SUMO netconvert Version 1.8.0
<configuration xmlns:xsi="http://www.w3.org/2001/XMLSchema-instance" xsi:noNamespaceSchemaLocation="http://sumo.dlr.de/xsd/netconvertConfiguration.xsd">

    <input>
        <node-files value="./converted_scenarios/SUMO/DEU_Flensburg-55_1_I-1-1/DEU_Flensburg-55_1_I-1-1.nod.xml"/>
        <edge-files value="./converted_scenarios/SUMO/DEU_Flensburg-55_1_I-1-1/DEU_Flensburg-55_1_I-1-1.edg.xml"/>
        <connection-files value="./converted_scenarios/SUMO/DEU_Flensburg-55_1_I-1-1/DEU_Flensburg-55_1_I-1-1.con.xml"/>
        <tllogic-files value="./converted_scenarios/SUMO/DEU_Flensburg-55_1_I-1-1/DEU_Flensburg-55_1_I-1-1.tll.xml"/>
        <type-files value="/home/zen/commonroad-interactive-benchmarks/install/commonroad-map-tool/crmapconverter/sumo_map/templates/DEU.typ.xml"/>
    </input>

    <output>
        <output-file value="./converted_scenarios/SUMO/DEU_Flensburg-55_1_I-1-1/DEU_Flensburg-55_1_I-1-1.net.xml"/>
    </output>

    <processing>
        <geometry.remove.keep-edges.explicit value="true"/>
        <geometry.avoid-overlap value="true"/>
        <offset.disable-normalization value="true"/>
    </processing>

    <junctions>
        <no-turnarounds value="true"/>
        <junctions.internal-link-detail value="20"/>
    </junctions>

    <report>
        <aggregate-warnings value="5"/>
    </report>

    <random_number>
        <seed value="1234"/>
    </random_number>

</configuration>
--><net xmlns:xsi="http://www.w3.org/2001/XMLSchema-instance" version="1.6" junctionCornerDetail="5" junctionLinkDetail="20" limitTurnSpeed="5.50" xsi:noNamespaceSchemaLocation="http://sumo.dlr.de/xsd/net_file.xsd">

    <location netOffset="0.00,0.00" convBoundary="311.66,-192.75,467.79,26.10" origBoundary="311.66,-195.53,469.36,26.88" projParameter="!"/>

    <type id="highway.bridleway" priority="1" speed="2.78" allow="pedestrian" oneway="1" width="2.00"/>
    <type id="highway.bus_guideway" priority="1" speed="27.78" allow="bus" oneway="1"/>
    <type id="highway.cycleway" priority="1" speed="8.33" allow="bicycle" oneway="0" width="1.00"/>
    <type id="highway.footway" priority="1" speed="2.78" allow="pedestrian" oneway="1" width="2.00"/>
    <type id="highway.ford" priority="1" speed="2.78" allow="army" oneway="0"/>
    <type id="highway.living_street" priority="2" speed="2.78" disallow="tram rail_urban rail rail_electric rail_fast ship" oneway="0"/>
    <type id="highway.motorway" priority="14" speed="39.44" allow="private emergency authority army vip passenger hov taxi bus coach delivery truck trailer motorcycle evehicle custom1 custom2" oneway="1"/>
    <type id="highway.motorway_link" priority="9" speed="22.22" allow="private emergency authority army vip passenger hov taxi bus coach delivery truck trailer motorcycle evehicle custom1 custom2" oneway="1"/>
    <type id="highway.path" priority="1" speed="2.78" allow="pedestrian bicycle" oneway="0" width="2.00"/>
    <type id="highway.pedestrian" priority="1" speed="2.78" allow="pedestrian" oneway="1" width="2.00"/>
    <type id="highway.primary" priority="12" speed="27.78" disallow="pedestrian tram rail_urban rail rail_electric rail_fast ship" oneway="0"/>
    <type id="highway.primary_link" priority="7" speed="22.22" disallow="pedestrian tram rail_urban rail rail_electric rail_fast ship" oneway="0"/>
    <type id="highway.raceway" priority="15" speed="83.33" allow="vip" oneway="0"/>
    <type id="highway.residential" priority="3" speed="13.89" disallow="pedestrian tram rail_urban rail rail_electric rail_fast ship" oneway="0"/>
    <type id="highway.secondary" priority="11" speed="27.78" disallow="pedestrian tram rail_urban rail rail_electric rail_fast ship" oneway="0"/>
    <type id="highway.secondary_link" priority="6" speed="22.22" disallow="pedestrian tram rail_urban rail rail_electric rail_fast ship" oneway="0"/>
    <type id="highway.service" priority="1" speed="5.56" allow="pedestrian delivery bicycle" oneway="0"/>
    <type id="highway.stairs" priority="1" speed="1.39" allow="pedestrian" oneway="1" width="2.00"/>
    <type id="highway.step" priority="1" speed="1.39" allow="pedestrian" oneway="1" width="2.00"/>
    <type id="highway.steps" priority="1" speed="1.39" allow="pedestrian" oneway="1" width="2.00"/>
    <type id="highway.tertiary" priority="10" speed="22.22" disallow="pedestrian tram rail_urban rail rail_electric rail_fast ship" oneway="0"/>
    <type id="highway.tertiary_link" priority="5" speed="22.22" disallow="pedestrian tram rail_urban rail rail_electric rail_fast ship" oneway="0"/>
    <type id="highway.track" priority="1" speed="5.56" allow="pedestrian motorcycle moped bicycle" oneway="0"/>
    <type id="highway.trunk" priority="13" speed="27.78" disallow="pedestrian bicycle tram rail_urban rail rail_electric rail_fast ship" oneway="0"/>
    <type id="highway.trunk_link" priority="8" speed="22.22" disallow="pedestrian bicycle tram rail_urban rail rail_electric rail_fast ship" oneway="0"/>
    <type id="highway.unclassified" priority="4" speed="13.89" disallow="pedestrian tram rail_urban rail rail_electric rail_fast ship" oneway="0"/>
    <type id="highway.unsurfaced" priority="1" speed="8.33" disallow="tram rail_urban rail rail_electric rail_fast ship" oneway="0"/>
    <type id="railway.highspeed" priority="21" speed="69.44" allow="rail_fast" oneway="1"/>
    <type id="railway.light_rail" priority="19" speed="27.78" allow="rail_urban" oneway="1"/>
    <type id="railway.preserved" priority="16" speed="27.78" allow="rail" oneway="1"/>
    <type id="railway.rail" priority="20" speed="44.44" allow="rail" oneway="1"/>
    <type id="railway.subway" priority="18" speed="27.78" allow="rail_urban" oneway="1"/>
    <type id="railway.tram" priority="17" speed="13.89" allow="tram" oneway="1"/>

    <edge id=":15_0" function="internal">
        <lane id=":15_0_0" index="0" disallow="pedestrian tram rail_urban rail rail_electric rail_fast ship" speed="6.78" length="9.44" width="3.50" shape="387.48,-114.37 386.46,-115.63 385.14,-116.77 384.13,-117.34 383.02,-117.70 381.86,-117.78 380.72,-117.58 379.39,-117.05"/>
    </edge>
    <edge id=":15_1" function="internal">
        <lane id=":15_1_0" index="0" disallow="pedestrian tram rail_urban rail rail_electric rail_fast ship" speed="36.11" length="15.56" width="3.50" shape="390.79,-116.13 386.88,-123.23 383.05,-129.63"/>
        <lane id=":15_1_1" index="1" disallow="pedestrian tram rail_urban rail rail_electric rail_fast ship" speed="36.11" length="15.81" width="3.50" shape="393.88,-117.77 389.90,-124.99 386.02,-131.48"/>
    </edge>
    <edge id=":15_3" function="internal">
        <lane id=":15_3_0" index="0" disallow="pedestrian tram rail_urban rail rail_electric rail_fast ship" speed="36.11" length="8.13" width="3.50" shape="397.02,-119.44 396.75,-119.98 396.52,-120.47 396.33,-120.92 396.18,-121.33 396.06,-121.72 395.96,-122.08 395.89,-122.43 395.83,-122.76 395.78,-123.09 395.75,-123.41 395.71,-123.74 395.67,-124.08 395.63,-124.44 395.57,-124.82 395.50,-125.23 395.40,-125.67 395.28,-126.15 395.13,-126.67 394.94,-127.25"/>
    </edge>
    <edge id=":15_4" function="internal">
        <lane id=":15_4_0" index="0" disallow="pedestrian tram rail_urban rail rail_electric rail_fast ship" speed="36.11" length="22.94" width="3.50" shape="399.85,-127.42 382.61,-118.61 379.39,-117.05"/>
    </edge>
    <edge id=":15_5" function="internal">
        <lane id=":15_5_0" index="0" disallow="pedestrian tram rail_urban rail rail_electric rail_fast ship" speed="8.98" length="17.16" width="3.50" shape="399.85,-127.42 394.60,-124.79 393.55,-124.80 392.55,-125.10 391.18,-125.88 389.59,-127.26 387.51,-129.63 386.16,-131.57"/>
    </edge>
    <edge id=":15_6" function="internal">
        <lane id=":15_6_0" index="0" disallow="pedestrian tram rail_urban rail rail_electric rail_fast ship" speed="8.53" length="15.38" width="3.50" shape="399.85,-127.42 395.13,-125.23 394.05,-126.25 391.94,-129.03 389.08,-133.38"/>
    </edge>
    <edge id=":15_7" function="internal">
        <lane id=":15_7_0" index="0" disallow="pedestrian tram rail_urban rail rail_electric rail_fast ship" speed="6.24" length="8.88" width="3.50" shape="377.90,-120.21 379.15,-120.93 379.98,-121.74 380.56,-122.75 380.81,-123.89 380.78,-125.05 380.36,-126.75 379.94,-127.69"/>
    </edge>
    <edge id=":15_8" function="internal">
        <lane id=":15_8_0" index="0" disallow="pedestrian tram rail_urban rail rail_electric rail_fast ship" speed="36.11" length="17.87" width="3.50" shape="377.90,-120.21 393.90,-128.16"/>
    </edge>
    <edge id=":17_0" function="internal">
        <lane id=":17_0_0" index="0" disallow="pedestrian tram rail_urban rail rail_electric rail_fast ship" speed="36.11" length="9.39" width="3.49" shape="434.32,-39.23 432.97,-40.18 427.45,-43.03 426.19,-43.90"/>
        <lane id=":17_0_1" index="1" disallow="pedestrian tram rail_urban rail rail_electric rail_fast ship" speed="36.11" length="8.30" width="3.50" shape="434.66,-39.39 433.94,-40.28 429.24,-44.92 428.90,-45.35"/>
        <lane id=":17_0_2" index="2" disallow="pedestrian tram rail_urban rail rail_electric rail_fast ship" speed="36.11" length="7.98" width="3.50" shape="435.06,-39.59 431.53,-46.75"/>
        <lane id=":17_0_3" index="3" disallow="pedestrian tram rail_urban rail rail_electric rail_fast ship" speed="36.11" length="8.11" width="3.50" shape="438.21,-41.13 434.62,-48.40"/>
    </edge>

    <edge id="2154" from="15" to="16" priority="3" type="highway.residential" spreadType="center" length="0.20" shape="385.01,-123.23 393.95,-128.18">
        <lane id="2154_0" index="0" disallow="pedestrian tram rail_urban rail rail_electric rail_fast ship" speed="36.11" length="0.20" width="3.50" customShape="1" shape="394.94,-127.25 394.88,-127.44"/>
    </edge>
    <edge id="2177" from="15" to="16" priority="3" type="highway.residential" spreadType="center" length="0.20">
        <lane id="2177_0" index="0" disallow="pedestrian tram rail_urban rail rail_electric rail_fast ship" speed="36.11" length="0.20" width="3.50" customShape="1" shape="393.90,-128.16 394.08,-128.25"/>
    </edge>
    <edge id="80" from="12" to="15" priority="3" type="highway.residential" spreadType="center" length="0.67" shape="400.44,-127.73 386.75,-120.30">
        <lane id="80_0" index="0" disallow="pedestrian tram rail_urban rail rail_electric rail_fast ship" speed="36.11" length="0.67" width="3.39" customShape="1" shape="400.44,-127.73 399.85,-127.42"/>
    </edge>
    <edge id="925" from="17" to="15" priority="3" type="highway.residential" spreadType="center" length="80.38">
        <lane id="925_0" index="0" disallow="pedestrian tram rail_urban rail rail_electric rail_fast ship" speed="36.11" length="80.39" width="3.49" customShape="1" shape="425.40,-43.48 406.60,-78.95 387.75,-114.51"/>
        <lane id="925_1" index="1" disallow="pedestrian tram rail_urban rail rail_electric rail_fast ship" speed="36.11" length="80.39" width="3.50" customShape="1" shape="428.48,-45.12 409.69,-80.59 390.84,-116.15"/>
        <lane id="925_2" index="2" disallow="pedestrian tram rail_urban rail rail_electric rail_fast ship" speed="36.11" length="80.39" width="3.50" customShape="1" shape="431.57,-46.77 412.78,-82.23 393.93,-117.80"/>
        <lane id="925_3" index="3" disallow="pedestrian tram rail_urban rail rail_electric rail_fast ship" speed="36.11" length="80.38" width="3.50" customShape="1" shape="434.66,-48.42 415.87,-83.87 397.02,-119.44"/>
    </edge>
    <edge id="936" from="11" to="17" priority="3" type="highway.residential" spreadType="center" length="73.29">
        <lane id="936_0" index="0" disallow="pedestrian tram rail_urban rail rail_electric rail_fast ship" speed="36.11" length="73.29" width="3.50" customShape="1" shape="466.17,26.76 465.68,25.55 459.88,12.27 452.27,-4.05 435.09,-39.60"/>
        <lane id="936_1" index="1" disallow="pedestrian tram rail_urban rail rail_electric rail_fast ship" speed="36.11" length="73.53" width="3.50" customShape="1" shape="469.41,25.44 468.90,24.17 463.06,10.81 455.42,-5.57 438.23,-41.14"/>
    </edge>
    <edge id="950" from="8" to="15" priority="3" type="highway.residential" spreadType="center" length="69.73" shape="311.66,-99.03 385.60,-123.54">
        <lane id="950_0" index="0" disallow="pedestrian tram rail_urban rail rail_electric rail_fast ship" speed="36.11" length="69.73" width="3.50" customShape="1" shape="311.66,-99.03 315.62,-99.95 330.74,-103.64 345.72,-107.75 354.75,-110.51 362.21,-113.17 368.65,-115.85 377.90,-120.21"/>
    </edge>
    <edge id="951" from="15" to="5" priority="3" type="highway.residential" spreadType="center" length="69.68" shape="386.70,-120.22 313.22,-95.80">
        <lane id="951_0" index="0" disallow="pedestrian tram rail_urban rail rail_electric rail_fast ship" speed="36.11" length="69.68" width="3.50" customShape="1" shape="379.39,-117.05 370.07,-112.65 363.46,-109.91 355.84,-107.19 346.69,-104.39 331.62,-100.25 316.42,-96.55 313.22,-95.80"/>
    </edge>
    <edge id="989" from="15" to="3" priority="3" type="highway.residential" spreadType="center" length="72.35">
        <lane id="989_0" index="0" disallow="pedestrian tram rail_urban rail rail_electric rail_fast ship" speed="36.11" length="73.15" width="3.50" customShape="1" shape="380.13,-127.81 357.65,-163.67 349.36,-177.52 342.40,-189.87 342.16,-190.32"/>
        <lane id="989_1" index="1" disallow="pedestrian tram rail_urban rail rail_electric rail_fast ship" speed="36.11" length="72.89" width="3.50" customShape="1" shape="383.10,-129.66 360.63,-165.50 352.39,-179.28 345.47,-191.54 345.26,-191.94"/>
        <lane id="989_2" index="2" disallow="pedestrian tram rail_urban rail rail_electric rail_fast ship" speed="36.11" length="72.62" width="3.50" customShape="1" shape="386.07,-131.51 363.62,-167.33 355.42,-181.03 348.55,-193.22 348.36,-193.56"/>
        <lane id="989_3" index="3" disallow="pedestrian tram rail_urban rail rail_electric rail_fast ship" speed="36.11" length="72.35" width="3.50" customShape="1" shape="389.04,-133.37 366.61,-169.14 358.45,-182.77 351.63,-194.87 351.47,-195.19"/>
    </edge>

    <junction id="11" type="dead_end" x="467.79" y="26.10" incLanes="" intLanes="" shape="471.03,24.79 464.55,27.41" rightOfWay="edgePriority"/>
    <junction id="12" type="dead_end" x="400.44" y="-127.73" incLanes="" intLanes="" shape="399.63,-129.23 401.24,-126.24" rightOfWay="edgePriority"/>
    <junction id="15" type="priority" x="386.11" y="-121.87" incLanes="925_0 925_1 925_2 925_3 80_0 950_0" intLanes=":15_0_0 :15_1_0 :15_1_1 :15_3_0 :15_4_0 :15_5_0 :15_6_0 :15_7_0 :15_8_0" shape="386.21,-113.69 398.57,-120.26 397.95,-122.45 398.12,-123.42 398.60,-124.31 399.40,-125.12 400.51,-125.85 399.19,-128.99 395.57,-131.09 392.08,-129.94 398.45,-128.47 396.91,-131.61 390.53,-134.29 378.65,-126.89 379.43,-124.82 379.34,-123.92 378.93,-123.12 378.20,-122.41 377.15,-121.79 380.14,-115.46 382.64,-116.13 383.71,-115.99 384.66,-115.54 385.49,-114.77">
        <request index="0" response="000000000" foes="000010000" cont="0"/>
        <request index="1" response="000000000" foes="101110000" cont="0"/>
        <request index="2" response="000000000" foes="101110000" cont="0"/>
        <request index="3" response="000000000" foes="001110000" cont="0"/>
        <request index="4" response="000001111" foes="000001111" cont="0"/>
        <request index="5" response="100001110" foes="100001110" cont="0"/>
        <request index="6" response="100001110" foes="100001110" cont="0"/>
        <request index="7" response="000000000" foes="000000000" cont="0"/>
        <request index="8" response="000000110" foes="001100110" cont="0"/>
    </junction>
    <junction id="16" type="dead_end" x="393.95" y="-128.18" incLanes="2154_0 2177_0" intLanes="" shape="392.93,-124.06 396.71,-124.20 394.56,-127.16 393.39,-128.01 392.16,-128.42 390.87,-128.40 389.53,-127.93 391.09,-124.80 391.87,-125.01 392.20,-124.94 392.48,-124.76 392.73,-124.46"/>
    <junction id="17" type="priority" x="433.27" y="-43.17" incLanes="936_0 936_1" intLanes=":17_0_0 :17_0_1 :17_0_2 :17_0_3" shape="433.52,-38.83 439.80,-41.91 436.20,-49.24 423.86,-42.66 425.26,-41.10 426.94,-40.66 428.75,-40.78 430.55,-40.88 432.19,-40.42">
        <request index="0" response="0000" foes="0000" cont="0"/>
        <request index="1" response="0000" foes="0000" cont="0"/>
        <request index="2" response="0000" foes="0000" cont="0"/>
        <request index="3" response="0000" foes="0000" cont="0"/>
    </junction>
    <junction id="3" type="dead_end" x="346.81" y="-192.75" incLanes="989_0 989_1 989_2 989_3" intLanes="" shape="340.61,-189.50 353.02,-196.00" rightOfWay="edgePriority"/>
    <junction id="5" type="dead_end" x="313.22" y="-95.80" incLanes="951_0" intLanes="" shape="313.61,-94.10 312.82,-97.51" rightOfWay="edgePriority"/>
    <junction id="8" type="dead_end" x="311.66" y="-99.03" incLanes="" intLanes="" shape="312.06,-97.33 311.26,-100.74" rightOfWay="edgePriority"/>

    <connection from="80" to="951" fromLane="0" toLane="0" contPos="-4.00" shape="395.52,-125.12 382.61,-118.61 379.68,-117.18" via=":15_4_0" dir="s" state="m"/>
    <connection from="80" to="989" fromLane="0" toLane="2" contPos="-4.00" shape="395.52,-125.12 394.60,-124.79 393.55,-124.80 392.55,-125.10 391.18,-125.88 389.59,-127.26 387.51,-129.63 385.10,-133.08 384.61,-133.85" via=":15_5_0" dir="L" state="m"/>
    <connection from="80" to="989" fromLane="0" toLane="3" contPos="-4.00" shape="395.52,-125.12 395.13,-125.23 394.05,-126.25 391.94,-129.03 388.11,-134.86 387.59,-135.69" via=":15_6_0" dir="L" state="m"/>
    <connection from="925" to="951" fromLane="0" toLane="0" contPos="-4.00" shape="389.44,-111.32 387.93,-113.82 386.46,-115.63 385.14,-116.77 384.13,-117.34 383.02,-117.70 381.86,-117.78 380.72,-117.58 379.68,-117.18" via=":15_0_0" dir="r" state="M"/>
    <connection from="925" to="989" fromLane="1" toLane="1" contPos="-4.00" shape="392.53,-112.97 386.88,-123.23 381.64,-131.99" via=":15_1_0" dir="s" state="M"/>
    <connection from="925" to="989" fromLane="2" toLane="2" contPos="-4.00" shape="395.62,-114.61 389.90,-124.99 384.61,-133.85" via=":15_1_1" dir="s" state="M"/>
    <connection from="925" to="2154" fromLane="3" toLane="0" contPos="-4.00" via=":15_3_0" dir="l" state="M"/>
    <connection from="936" to="925" fromLane="0" toLane="0" contPos="-4.00" shape="436.57,-36.52 435.74,-37.87 434.66,-38.98 432.97,-40.18 427.45,-43.03 425.74,-44.20 424.63,-45.28 423.77,-46.54" via=":17_0_0" dir="s" state="M"/>
    <connection from="936" to="925" fromLane="0" toLane="1" contPos="-4.00" shape="436.57,-36.52 435.54,-38.31 433.94,-40.28 429.24,-44.92 427.65,-46.89 426.83,-48.23" via=":17_0_1" dir="s" state="M"/>
    <connection from="936" to="925" fromLane="0" toLane="2" contPos="-4.00" shape="436.57,-36.52 431.11,-47.61 429.93,-49.87" via=":17_0_2" dir="s" state="M"/>
    <connection from="936" to="925" fromLane="1" toLane="3" contPos="-4.00" shape="439.71,-38.08 434.23,-49.20 433.03,-51.49" via=":17_0_3" dir="s" state="M"/>
    <connection from="950" to="989" fromLane="0" toLane="0" contPos="-4.00" shape="378.15,-120.33 379.15,-120.93 379.98,-121.74 380.56,-122.75 380.81,-123.89 380.78,-125.05 380.36,-126.75 379.41,-128.87 378.67,-130.15" via=":15_7_0" dir="r" state="M"/>
    <connection from="950" to="2177" fromLane="0" toLane="0" contPos="-4.00" via=":15_8_0" dir="R" state="m"/>

    <connection from=":15_0" to="951" fromLane="0" toLane="0" dir="r" state="M"/>
    <connection from=":15_1" to="989" fromLane="0" toLane="1" dir="s" state="M"/>
    <connection from=":15_1" to="989" fromLane="1" toLane="2" dir="s" state="M"/>
    <connection from=":15_3" to="2154" fromLane="0" toLane="0" dir="l" state="M"/>
    <connection from=":15_4" to="951" fromLane="0" toLane="0" dir="s" state="M"/>
    <connection from=":15_5" to="989" fromLane="0" toLane="2" dir="L" state="M"/>
    <connection from=":15_6" to="989" fromLane="0" toLane="3" dir="L" state="M"/>
    <connection from=":15_7" to="989" fromLane="0" toLane="0" dir="r" state="M"/>
    <connection from=":15_8" to="2177" fromLane="0" toLane="0" dir="R" state="M"/>
    <connection from=":17_0" to="925" fromLane="0" toLane="0" dir="s" state="M"/>
    <connection from=":17_0" to="925" fromLane="1" toLane="1" dir="s" state="M"/>
    <connection from=":17_0" to="925" fromLane="2" toLane="2" dir="s" state="M"/>
    <connection from=":17_0" to="925" fromLane="3" toLane="3" dir="s" state="M"/>

</net>