<routes>
	<vehicle depart="0.1" departLane="0" departPos="6.976408656457256" departSpeed="0.72293203" id="383" type="bicycle">
		<route edges="6183 6180"/>
	</vehicle>
	<vehicle depart="0.1" departLane="0" departPos="33.54726768049298" departSpeed="4.6098116" id="3123" type="bicycle">
		<route edges=":140_1 6183 6180"/>
	</vehicle>
	<vehicle depart="0.1" departLane="0" departPos="8.499797487866418" departSpeed="0.79680741" id="344" type="bus">
		<route edges=":140_11 6187"/>
	</vehicle>
	<vehicle depart="0.1" departLane="0" departPos="18.1258001298116" departSpeed="0.76739128" id="310" type="passenger">
		<route edges="6183 6180"/>
	</vehicle>
	<vehicle depart="0.1" departLane="0" departPos="21.486667071020857" departSpeed="1.4036055" id="319" type="passenger">
		<route edges=":140_11 6187"/>
	</vehicle>
	<vehicle depart="0.1" departLane="0" departPos="24.811926835436697" departSpeed="1.6082725" id="398" type="passenger">
		<route edges="5565 6187"/>
	</vehicle>
	<vehicle depart="0.1" departLane="0" departPos="24.58955715755583" departSpeed="1.3958474" id="3116" type="passenger">
		<route edges=":140_2 5562"/>
	</vehicle>
	<vehicle depart="0.1" departLane="0" departPos="17.24325930869596" departSpeed="0.50038718" id="3147" type="passenger">
		<route edges="5565 6187"/>
	</vehicle>
	<vehicle depart="0.1" departLane="0" departPos="7.4403289885895765" departSpeed="1.084416" id="35" type="motorcycle">
		<route edges="6183 6180"/>
	</vehicle>
	<vehicle depart="0.1" departLane="0" departPos="8.886768191105565" departSpeed="7.6225466" id="3107" type="truck">
		<route edges="6184 5566"/>
	</vehicle>
</routes>
