<!-- generated on Tue Feb  9 22:11:03 2021 by Eclipse SUMO netconvert Version 1.8.0
<configuration xmlns:xsi="http://www.w3.org/2001/XMLSchema-instance" xsi:noNamespaceSchemaLocation="http://sumo.dlr.de/xsd/netconvertConfiguration.xsd">

    <input>
        <node-files value="./converted_scenarios/scenario-factory/DEU_Hennigsdorf-15_1_I-1-1/DEU_Hennigsdorf-15_1_I-1-1.nod.xml"/>
        <edge-files value="./converted_scenarios/scenario-factory/DEU_Hennigsdorf-15_1_I-1-1/DEU_Hennigsdorf-15_1_I-1-1.edg.xml"/>
        <connection-files value="./converted_scenarios/scenario-factory/DEU_Hennigsdorf-15_1_I-1-1/DEU_Hennigsdorf-15_1_I-1-1.con.xml"/>
        <tllogic-files value="./converted_scenarios/scenario-factory/DEU_Hennigsdorf-15_1_I-1-1/DEU_Hennigsdorf-15_1_I-1-1.tll.xml"/>
        <type-files value="/home/zen/commonroad-interactive-benchmarks/install/commonroad-map-tool/crmapconverter/sumo_map/templates/DEU.typ.xml"/>
    </input>

    <output>
        <output-file value="./converted_scenarios/scenario-factory/DEU_Hennigsdorf-15_1_I-1-1/DEU_Hennigsdorf-15_1_I-1-1.net.xml"/>
    </output>

    <processing>
        <geometry.remove.keep-edges.explicit value="true"/>
        <geometry.avoid-overlap value="true"/>
        <offset.disable-normalization value="true"/>
    </processing>

    <junctions>
        <no-turnarounds value="true"/>
        <junctions.internal-link-detail value="20"/>
    </junctions>

    <report>
        <aggregate-warnings value="5"/>
    </report>

    <random_number>
        <seed value="1234"/>
    </random_number>

</configuration>
--><net xmlns:xsi="http://www.w3.org/2001/XMLSchema-instance" version="1.6" junctionCornerDetail="5" junctionLinkDetail="20" limitTurnSpeed="5.50" xsi:noNamespaceSchemaLocation="http://sumo.dlr.de/xsd/net_file.xsd">

    <location netOffset="0.00,0.00" convBoundary="1.93,-1011.58,171.41,-752.12" origBoundary="1.93,-1011.58,171.41,-752.12" projParameter="!"/>

    <type id="highway.bridleway" priority="1" speed="2.78" allow="pedestrian" oneway="1" width="2.00"/>
    <type id="highway.bus_guideway" priority="1" speed="27.78" allow="bus" oneway="1"/>
    <type id="highway.cycleway" priority="1" speed="8.33" allow="bicycle" oneway="0" width="1.00"/>
    <type id="highway.footway" priority="1" speed="2.78" allow="pedestrian" oneway="1" width="2.00"/>
    <type id="highway.ford" priority="1" speed="2.78" allow="army" oneway="0"/>
    <type id="highway.living_street" priority="2" speed="2.78" disallow="tram rail_urban rail rail_electric rail_fast ship" oneway="0"/>
    <type id="highway.motorway" priority="14" speed="39.44" allow="private emergency authority army vip passenger hov taxi bus coach delivery truck trailer motorcycle evehicle custom1 custom2" oneway="1"/>
    <type id="highway.motorway_link" priority="9" speed="22.22" allow="private emergency authority army vip passenger hov taxi bus coach delivery truck trailer motorcycle evehicle custom1 custom2" oneway="1"/>
    <type id="highway.path" priority="1" speed="2.78" allow="pedestrian bicycle" oneway="0" width="2.00"/>
    <type id="highway.pedestrian" priority="1" speed="2.78" allow="pedestrian" oneway="1" width="2.00"/>
    <type id="highway.primary" priority="12" speed="27.78" disallow="pedestrian tram rail_urban rail rail_electric rail_fast ship" oneway="0"/>
    <type id="highway.primary_link" priority="7" speed="22.22" disallow="pedestrian tram rail_urban rail rail_electric rail_fast ship" oneway="0"/>
    <type id="highway.raceway" priority="15" speed="83.33" allow="vip" oneway="0"/>
    <type id="highway.residential" priority="3" speed="13.89" disallow="pedestrian tram rail_urban rail rail_electric rail_fast ship" oneway="0"/>
    <type id="highway.secondary" priority="11" speed="27.78" disallow="pedestrian tram rail_urban rail rail_electric rail_fast ship" oneway="0"/>
    <type id="highway.secondary_link" priority="6" speed="22.22" disallow="pedestrian tram rail_urban rail rail_electric rail_fast ship" oneway="0"/>
    <type id="highway.service" priority="1" speed="5.56" allow="pedestrian delivery bicycle" oneway="0"/>
    <type id="highway.stairs" priority="1" speed="1.39" allow="pedestrian" oneway="1" width="2.00"/>
    <type id="highway.step" priority="1" speed="1.39" allow="pedestrian" oneway="1" width="2.00"/>
    <type id="highway.steps" priority="1" speed="1.39" allow="pedestrian" oneway="1" width="2.00"/>
    <type id="highway.tertiary" priority="10" speed="22.22" disallow="pedestrian tram rail_urban rail rail_electric rail_fast ship" oneway="0"/>
    <type id="highway.tertiary_link" priority="5" speed="22.22" disallow="pedestrian tram rail_urban rail rail_electric rail_fast ship" oneway="0"/>
    <type id="highway.track" priority="1" speed="5.56" allow="pedestrian motorcycle moped bicycle" oneway="0"/>
    <type id="highway.trunk" priority="13" speed="27.78" disallow="pedestrian bicycle tram rail_urban rail rail_electric rail_fast ship" oneway="0"/>
    <type id="highway.trunk_link" priority="8" speed="22.22" disallow="pedestrian bicycle tram rail_urban rail rail_electric rail_fast ship" oneway="0"/>
    <type id="highway.unclassified" priority="4" speed="13.89" disallow="pedestrian tram rail_urban rail rail_electric rail_fast ship" oneway="0"/>
    <type id="highway.unsurfaced" priority="1" speed="8.33" disallow="tram rail_urban rail rail_electric rail_fast ship" oneway="0"/>
    <type id="railway.highspeed" priority="21" speed="69.44" allow="rail_fast" oneway="1"/>
    <type id="railway.light_rail" priority="19" speed="27.78" allow="rail_urban" oneway="1"/>
    <type id="railway.preserved" priority="16" speed="27.78" allow="rail" oneway="1"/>
    <type id="railway.rail" priority="20" speed="44.44" allow="rail" oneway="1"/>
    <type id="railway.subway" priority="18" speed="27.78" allow="rail_urban" oneway="1"/>
    <type id="railway.tram" priority="17" speed="13.89" allow="tram" oneway="1"/>

    <edge id=":27_0" function="internal">
        <lane id=":27_0_0" index="0" disallow="pedestrian tram rail_urban rail rail_electric rail_fast ship" speed="10.48" length="31.40" width="3.50" shape="86.77,-772.97 86.05,-776.77 85.13,-779.84 84.09,-782.18 83.09,-783.83 81.86,-785.30 80.39,-786.53 78.69,-787.42 76.84,-787.94 74.92,-788.10 73.01,-787.95 70.50,-787.41 67.48,-786.33 65.17,-785.26"/>
    </edge>
    <edge id=":27_1" function="internal">
        <lane id=":27_1_0" index="0" disallow="pedestrian tram rail_urban rail rail_electric rail_fast ship" speed="36.11" length="49.97" width="3.50" shape="86.77,-772.97 83.11,-797.70 79.45,-822.40"/>
    </edge>
    <edge id=":27_2" function="internal">
        <lane id=":27_2_0" index="0" disallow="pedestrian tram rail_urban rail rail_electric rail_fast ship" speed="16.20" length="45.08" width="3.50" shape="90.23,-773.47 89.75,-778.09 89.66,-781.55 89.84,-785.01 90.31,-788.45 91.11,-791.82 92.27,-795.08 93.80,-798.19 95.67,-801.11 97.87,-803.78 100.35,-806.21 103.06,-808.37 105.95,-810.27 107.97,-811.41"/>
    </edge>
    <edge id=":27_3" function="internal">
        <lane id=":27_3_0" index="0" disallow="pedestrian tram rail_urban rail rail_electric rail_fast ship" speed="15.42" length="40.77" width="3.50" shape="109.61,-808.32 107.79,-807.29 105.15,-805.55 102.70,-803.60 100.48,-801.42 98.51,-799.02 96.85,-796.41 95.49,-793.63 94.46,-790.70 93.74,-787.66 93.32,-784.55 93.17,-781.39 93.25,-778.23 93.70,-773.97"/>
    </edge>
    <edge id=":27_4" function="internal">
        <lane id=":27_4_0" index="0" disallow="pedestrian tram rail_urban rail rail_electric rail_fast ship" speed="36.11" length="50.07" width="3.50" shape="109.61,-808.32 95.14,-800.69 65.17,-785.26"/>
    </edge>
    <edge id=":27_5" function="internal">
        <lane id=":27_5_0" index="0" disallow="pedestrian tram rail_urban rail rail_electric rail_fast ship" speed="12.08" length="42.26" width="3.50" shape="109.61,-808.32 105.58,-806.37 101.98,-805.00 98.89,-804.18 96.35,-803.81 93.79,-803.78 91.89,-804.03 90.04,-804.55 88.30,-805.35 86.71,-806.43 85.30,-807.74 84.09,-809.22 82.74,-811.40 81.67,-813.73 80.65,-816.76 79.77,-820.50 79.45,-822.40"/>
    </edge>
    <edge id=":27_6" function="internal">
        <lane id=":27_6_0" index="0" disallow="pedestrian tram rail_urban rail rail_electric rail_fast ship" speed="10.47" length="31.38" width="3.50" shape="86.37,-823.46 87.13,-819.61 88.10,-816.49 89.19,-814.11 90.23,-812.45 91.52,-810.97 93.06,-809.76 94.83,-808.92 96.74,-808.48 98.70,-808.42 100.65,-808.65 103.18,-809.31 106.21,-810.53 107.97,-811.41"/>
    </edge>
    <edge id=":27_7" function="internal">
        <lane id=":27_7_0" index="0" disallow="pedestrian tram rail_urban rail rail_electric rail_fast ship" speed="36.11" length="50.03" width="3.50" shape="86.37,-823.46 90.03,-798.72 93.70,-773.97"/>
    </edge>
    <edge id=":27_8" function="internal">
        <lane id=":27_8_0" index="0" disallow="pedestrian tram rail_urban rail rail_electric rail_fast ship" speed="16.00" length="44.95" width="3.50" shape="82.91,-822.92 83.21,-820.61 83.49,-817.14 83.51,-813.62 83.24,-810.10 82.64,-806.60 81.66,-803.17 80.28,-799.85 78.50,-796.73 76.36,-793.86 73.89,-791.26 71.16,-788.97 68.24,-786.98 65.17,-785.26"/>
    </edge>
    <edge id=":27_9" function="internal">
        <lane id=":27_9_0" index="0" disallow="pedestrian tram rail_urban rail rail_electric rail_fast ship" speed="15.22" length="40.57" width="3.50" shape="63.57,-788.37 66.37,-789.94 69.01,-791.75 71.46,-793.81 73.66,-796.13 75.57,-798.70 77.15,-801.49 78.37,-804.45 79.23,-807.53 79.77,-810.69 80.01,-813.89 79.98,-817.09 79.73,-820.28 79.45,-822.40"/>
    </edge>
    <edge id=":27_10" function="internal">
        <lane id=":27_10_0" index="0" disallow="pedestrian tram rail_urban rail rail_electric rail_fast ship" speed="36.11" length="50.02" width="3.50" shape="63.57,-788.37 93.52,-803.79 107.97,-811.41"/>
    </edge>
    <edge id=":27_11" function="internal">
        <lane id=":27_11_0" index="0" disallow="pedestrian tram rail_urban rail rail_electric rail_fast ship" speed="12.09" length="42.22" width="3.50" shape="63.57,-788.37 67.64,-790.24 71.25,-791.54 74.36,-792.30 76.89,-792.63 79.45,-792.64 81.35,-792.37 83.19,-791.84 84.93,-791.03 86.51,-789.95 87.92,-788.65 89.13,-787.16 90.47,-784.99 91.53,-782.66 92.54,-779.62 93.39,-775.88 93.70,-773.97"/>
    </edge>
    <edge id=":28_0" function="internal">
        <lane id=":28_0_0" index="0" disallow="pedestrian tram rail_urban rail rail_electric rail_fast ship" speed="36.11" length="37.01" width="3.50" shape="70.05,-904.88 67.83,-922.72 66.68,-934.29 66.19,-941.68"/>
    </edge>
    <edge id=":28_1" function="internal">
        <lane id=":28_1_0" index="0" disallow="pedestrian tram rail_urban rail rail_electric rail_fast ship" speed="9.07" length="20.00" width="3.50" shape="70.05,-904.88 69.78,-907.87 69.83,-910.85 70.16,-913.21 70.81,-915.50 71.55,-917.13 72.51,-918.63 73.68,-919.99 75.03,-921.15 76.82,-922.26"/>
    </edge>
    <edge id=":28_2" function="internal">
        <lane id=":28_2_0" index="0" disallow="pedestrian tram rail_urban rail rail_electric rail_fast ship" speed="8.68" length="16.82" width="3.50" shape="69.69,-941.85 69.95,-938.92 70.53,-936.06 71.28,-933.84 72.32,-931.75 73.30,-930.30 74.47,-929.00 75.81,-927.87 76.68,-927.31"/>
    </edge>
    <edge id=":28_3" function="internal">
        <lane id=":28_3_0" index="0" disallow="pedestrian tram rail_urban rail rail_electric rail_fast ship" speed="36.11" length="36.71" width="3.50" shape="69.69,-941.85 70.17,-934.54 71.31,-923.08 73.52,-905.35"/>
    </edge>
    <edge id=":29_0" function="internal">
        <lane id=":29_0_0" index="0" disallow="pedestrian tram rail_urban rail rail_electric rail_fast ship" speed="36.11" length="7.98" width="3.50" shape="80.87,-851.93 82.00,-847.05 82.66,-844.15"/>
        <lane id=":29_0_1" index="1" disallow="pedestrian tram rail_urban rail rail_electric rail_fast ship" speed="36.11" length="8.01" width="3.50" shape="79.77,-851.79 80.31,-843.80"/>
    </edge>
    <edge id=":5_0" function="internal">
        <lane id=":5_0_0" index="0" disallow="pedestrian tram rail_urban rail rail_electric rail_fast ship" speed="36.11" length="2.99" width="3.50" shape="75.49,-860.53 75.14,-863.50"/>
    </edge>
    <edge id=":9_0" function="internal">
        <lane id=":9_0_0" index="0" disallow="pedestrian tram rail_urban rail rail_electric rail_fast ship" speed="36.11" length="2.95" width="3.50" shape="78.11,-831.15 77.72,-834.07"/>
    </edge>

    <edge id="1728" from="28" to="29" priority="3" type="highway.residential" spreadType="center" length="53.92" shape="75.24,-923.86 80.08,-847.79">
        <lane id="1728_0" index="0" disallow="pedestrian tram rail_urban rail rail_electric rail_fast ship" speed="36.11" length="53.92" width="3.50" customShape="1" shape="73.52,-905.35 74.48,-898.31 77.14,-875.58 80.14,-851.84"/>
    </edge>
    <edge id="1729" from="5" to="28" priority="3" type="highway.residential" spreadType="center" length="41.72" shape="75.33,-862.02 71.75,-923.65">
        <lane id="1729_0" index="0" disallow="pedestrian tram rail_urban rail rail_electric rail_fast ship" speed="36.11" length="41.72" width="3.50" customShape="1" shape="75.14,-863.50 73.67,-875.14 71.01,-897.86 70.05,-904.91"/>
    </edge>
    <edge id="1731" from="25" to="28" priority="3" type="highway.residential" spreadType="center" length="70.09" shape="73.86,-1011.58 75.25,-923.70">
        <lane id="1731_0" index="0" disallow="pedestrian tram rail_urban rail rail_electric rail_fast ship" speed="36.11" length="70.09" width="3.50" customShape="1" shape="73.86,-1011.58 72.35,-1001.90 70.43,-986.46 69.84,-978.95 69.41,-967.92 69.35,-955.88 69.69,-941.76"/>
    </edge>
    <edge id="1732" from="28" to="22" priority="3" type="highway.residential" spreadType="center" length="70.00" shape="71.75,-923.64 70.29,-1011.41">
        <lane id="1732_0" index="0" disallow="pedestrian tram rail_urban rail rail_electric rail_fast ship" speed="36.11" length="70.00" width="3.50" customShape="1" shape="66.19,-941.68 65.85,-955.85 65.91,-968.01 66.35,-979.16 66.94,-986.77 68.88,-1002.35 70.29,-1011.41"/>
    </edge>
    <edge id="1750" from="27" to="16" priority="3" type="highway.residential" spreadType="center" length="70.00" shape="87.21,-796.71 3.52,-752.12">
        <lane id="1750_0" index="0" disallow="pedestrian tram rail_urban rail rail_electric rail_fast ship" speed="36.11" length="70.00" width="3.50" customShape="1" shape="65.17,-785.26 50.87,-777.87 3.52,-752.12"/>
    </edge>
    <edge id="1751" from="24" to="27" priority="3" type="highway.residential" spreadType="center" length="70.00" shape="1.93,-755.23 85.57,-799.80">
        <lane id="1751_0" index="0" disallow="pedestrian tram rail_urban rail rail_electric rail_fast ship" speed="36.11" length="70.00" width="3.50" customShape="1" shape="1.93,-755.23 49.25,-780.98 63.58,-788.37"/>
    </edge>
    <edge id="1790" from="29" to="27" priority="3" type="highway.residential" spreadType="center" length="21.02" shape="80.08,-847.79 89.83,-798.68">
        <lane id="1790_0" index="0" disallow="pedestrian tram rail_urban rail rail_electric rail_fast ship" speed="36.11" length="21.02" width="3.50" customShape="1" shape="83.20,-844.23 85.59,-828.54 86.37,-823.45"/>
        <lane id="1790_1" index="1" disallow="pedestrian tram rail_urban rail rail_electric rail_fast ship" speed="36.11" length="21.04" width="3.50" customShape="1" shape="79.74,-843.71 82.13,-828.02 82.91,-822.91"/>
    </edge>
    <edge id="1792" from="27" to="9" priority="3" type="highway.residential" spreadType="center" length="8.85" shape="84.66,-797.82 77.89,-832.61">
        <lane id="1792_0" index="0" disallow="pedestrian tram rail_urban rail rail_electric rail_fast ship" speed="36.11" length="8.85" width="3.50" customShape="1" shape="79.45,-822.40 78.67,-827.49 78.11,-831.15"/>
    </edge>
    <edge id="2051" from="27" to="15" priority="3" type="highway.residential" spreadType="center" length="9.80" shape="88.06,-798.67 95.09,-764.27">
        <lane id="2051_0" index="0" disallow="pedestrian tram rail_urban rail rail_electric rail_fast ship" speed="36.11" length="9.80" width="3.50" customShape="1" shape="93.70,-773.97 94.39,-769.14 95.09,-764.27"/>
    </edge>
    <edge id="2053" from="26" to="27" priority="3" type="highway.residential" spreadType="center" length="9.79" shape="89.89,-763.55 82.88,-797.88">
        <lane id="2053_0" index="0" disallow="pedestrian tram rail_urban rail rail_electric rail_fast ship" speed="36.11" length="9.79" width="3.50" customShape="1" shape="88.16,-763.30 87.46,-768.15 86.77,-772.99"/>
        <lane id="2053_1" index="1" disallow="pedestrian tram rail_urban rail rail_electric rail_fast ship" speed="36.11" length="9.80" width="3.50" customShape="1" shape="91.62,-763.79 90.93,-768.64 90.23,-773.49"/>
    </edge>
    <edge id="2302" from="28" to="21" priority="3" type="highway.residential" spreadType="center" length="81.29">
        <lane id="2302_0" index="0" disallow="pedestrian tram rail_urban rail rail_electric rail_fast ship" speed="36.11" length="81.29" width="3.50" customShape="1" shape="76.76,-924.45 110.28,-925.33 114.32,-925.48 156.17,-922.34 157.91,-922.17"/>
    </edge>
    <edge id="2407" from="23" to="27" priority="3" type="highway.residential" spreadType="center" length="70.01" shape="171.41,-841.21 87.15,-796.68">
        <lane id="2407_0" index="0" disallow="pedestrian tram rail_urban rail rail_electric rail_fast ship" speed="36.11" length="70.01" width="3.50" customShape="1" shape="171.41,-841.21 170.93,-840.95 109.61,-808.32"/>
    </edge>
    <edge id="2408" from="27" to="14" priority="3" type="highway.residential" spreadType="center" length="70.00" shape="85.52,-799.77 169.76,-844.30">
        <lane id="2408_0" index="0" disallow="pedestrian tram rail_urban rail rail_electric rail_fast ship" speed="36.11" length="70.00" width="3.50" customShape="1" shape="107.97,-811.41 169.29,-844.05 169.76,-844.30"/>
    </edge>
    <edge id="3828" from="9" to="5" priority="3" type="highway.residential" spreadType="center" length="26.56">
        <lane id="3828_0" index="0" disallow="pedestrian tram rail_urban rail rail_electric rail_fast ship" speed="36.11" length="26.56" width="3.50" customShape="1" shape="77.72,-834.07 77.13,-838.96 76.01,-855.79 75.49,-860.53"/>
    </edge>

    <junction id="14" type="dead_end" x="169.76" y="-844.30" incLanes="2408_0" intLanes="" shape="168.94,-845.84 170.59,-842.75" rightOfWay="edgePriority"/>
    <junction id="15" type="dead_end" x="95.09" y="-764.27" incLanes="2051_0" intLanes="" shape="96.82,-764.51 93.36,-764.02" rightOfWay="edgePriority"/>
    <junction id="16" type="dead_end" x="3.52" y="-752.12" incLanes="1750_0" intLanes="" shape="4.36,-750.58 2.68,-753.65" rightOfWay="edgePriority"/>
    <junction id="21" type="dead_end" x="157.91" y="-922.17" incLanes="2302_0" intLanes="" shape="158.08,-923.91 157.73,-920.43" rightOfWay="edgePriority"/>
    <junction id="22" type="dead_end" x="70.29" y="-1011.41" incLanes="1732_0" intLanes="" shape="68.56,-1011.68 72.02,-1011.14" rightOfWay="edgePriority"/>
    <junction id="23" type="dead_end" x="171.41" y="-841.21" incLanes="" intLanes="" shape="170.58,-842.75 172.23,-839.66" rightOfWay="edgePriority"/>
    <junction id="24" type="dead_end" x="1.93" y="-755.23" incLanes="" intLanes="" shape="2.76,-753.70 1.09,-756.77" rightOfWay="edgePriority"/>
    <junction id="25" type="dead_end" x="73.86" y="-1011.58" incLanes="" intLanes="" shape="72.13,-1011.85 75.58,-1011.31" rightOfWay="edgePriority"/>
    <junction id="26" type="dead_end" x="89.89" y="-763.55" incLanes="" intLanes="" shape="93.36,-764.05 86.43,-763.05" rightOfWay="edgePriority"/>
    <junction id="27" type="priority" x="86.36" y="-798.24" incLanes="2053_0 2053_1 2407_0 1790_0 1790_1 1751_0" intLanes=":27_0_0 :27_1_0 :27_2_0 :27_3_0 :27_4_0 :27_5_0 :27_6_0 :27_7_0 :27_8_0 :27_9_0 :27_10_0 :27_11_0" shape="85.04,-772.72 95.43,-774.22 94.93,-781.46 95.64,-787.98 97.54,-793.77 100.64,-798.84 104.94,-803.17 110.44,-806.78 107.15,-812.96 102.15,-810.88 97.87,-810.34 94.33,-811.36 91.52,-813.93 89.45,-818.05 88.10,-823.71 77.72,-822.13 78.26,-814.93 77.59,-808.46 75.71,-802.73 72.61,-797.73 68.30,-793.46 62.76,-789.92 65.98,-783.70 71.03,-785.73 75.33,-786.22 78.88,-785.16 81.68,-782.56 83.73,-778.41">
        <request index="0" response="000000000000" foes="000100010000" cont="0"/>
        <request index="1" response="000000000000" foes="111100110000" cont="0"/>
        <request index="2" response="000011000000" foes="110011110000" cont="0"/>
        <request index="3" response="000010000000" foes="100010000000" cont="0"/>
        <request index="4" response="000110000111" foes="100110000111" cont="0"/>
        <request index="5" response="011110000110" foes="011110000110" cont="0"/>
        <request index="6" response="000000000000" foes="010000000100" cont="0"/>
        <request index="7" response="000000000000" foes="110000111100" cont="0"/>
        <request index="8" response="000000000011" foes="110000110011" cont="0"/>
        <request index="9" response="000000000010" foes="000000100010" cont="0"/>
        <request index="10" response="000111000110" foes="000111100110" cont="0"/>
        <request index="11" response="000110011110" foes="000110011110" cont="0"/>
    </junction>
    <junction id="28" type="priority" x="73.50" y="-923.71" incLanes="1729_0 1731_0" intLanes=":28_0_0 :28_1_0 :28_2_0 :28_3_0" shape="68.32,-904.65 75.25,-905.59 74.65,-910.79 74.40,-915.05 74.48,-918.37 74.91,-920.76 75.69,-922.20 76.80,-922.70 76.71,-926.20 73.95,-927.88 72.94,-930.04 72.19,-933.08 71.69,-937.00 71.44,-941.80 64.44,-941.63 64.71,-933.72 65.09,-927.88 65.61,-923.08 66.30,-918.29 67.19,-912.49">
        <request index="0" response="0000" foes="0000" cont="0"/>
        <request index="1" response="1100" foes="1100" cont="0"/>
        <request index="2" response="0000" foes="0010" cont="0"/>
        <request index="3" response="0000" foes="0010" cont="0"/>
    </junction>
    <junction id="29" type="priority" x="80.08" y="-847.79" incLanes="1728_0" intLanes=":29_0_0 :29_0_1" shape="78.01,-843.45 84.93,-844.50 83.98,-847.35 83.36,-848.27 82.76,-849.20 82.24,-850.37 81.87,-852.06 78.40,-851.62 78.39,-848.60 78.17,-847.53 77.95,-846.46 77.86,-845.18">
        <request index="0" response="00" foes="00" cont="0"/>
        <request index="1" response="00" foes="00" cont="0"/>
    </junction>
    <junction id="5" type="priority" x="75.33" y="-862.02" incLanes="3828_0" intLanes=":5_0_0" shape="73.75,-860.34 77.23,-860.72 76.88,-863.72 73.40,-863.28" rightOfWay="edgePriority">
        <request index="0" response="0" foes="0" cont="0"/>
    </junction>
    <junction id="9" type="priority" x="77.89" y="-832.61" incLanes="1792_0" intLanes=":9_0_0" shape="76.38,-830.89 79.84,-831.42 79.45,-834.28 75.98,-833.87" rightOfWay="edgePriority">
        <request index="0" response="0" foes="0" cont="0"/>
    </junction>

    <connection from="1728" to="1790" fromLane="0" toLane="0" contPos="-4.00" shape="78.80,-862.48 79.83,-856.46 82.00,-847.05 83.92,-838.64 84.82,-833.63" via=":29_0_0" dir="s" state="M"/>
    <connection from="1728" to="1790" fromLane="0" toLane="1" contPos="-4.00" shape="78.80,-862.48 79.48,-856.19 80.60,-839.38 81.35,-833.11" via=":29_0_1" dir="s" state="M"/>
    <connection from="1729" to="1732" fromLane="0" toLane="0" contPos="-4.00" shape="70.05,-904.91 67.83,-922.72 66.68,-934.29 66.19,-941.68" via=":28_0_0" dir="s" state="M"/>
    <connection from="1729" to="2302" fromLane="0" toLane="0" contPos="-4.00" shape="70.05,-904.91 69.78,-907.87 69.83,-910.85 70.16,-913.21 70.81,-915.50 71.55,-917.13 72.51,-918.63 73.68,-919.99 75.03,-921.15 77.05,-922.41 79.25,-923.34 82.12,-924.12 85.07,-924.56 88.04,-924.75" via=":28_1_0" dir="l" state="m"/>
    <connection from="1731" to="2302" fromLane="0" toLane="0" contPos="-4.00" shape="69.69,-941.85 69.95,-938.92 70.53,-936.06 71.28,-933.84 72.32,-931.75 73.30,-930.30 74.47,-929.00 75.81,-927.87 77.29,-926.92 79.41,-925.96 81.65,-925.30 84.54,-924.85 87.46,-924.74 88.04,-924.75" via=":28_2_0" dir="r" state="M"/>
    <connection from="1731" to="1728" fromLane="0" toLane="0" contPos="-4.00" shape="69.69,-941.85 70.17,-934.54 71.31,-923.08 73.52,-905.35" via=":28_3_0" dir="s" state="M"/>
    <connection from="1751" to="1792" fromLane="0" toLane="0" contPos="-4.00" shape="63.58,-788.37 66.37,-789.94 69.01,-791.75 71.46,-793.81 73.66,-796.13 75.57,-798.70 77.15,-801.49 78.37,-804.45 79.23,-807.53 79.77,-810.69 80.01,-813.89 79.98,-817.09 79.73,-820.28 79.45,-822.40" via=":27_9_0" dir="r" state="m"/>
    <connection from="1751" to="2408" fromLane="0" toLane="0" contPos="-4.00" shape="63.58,-788.37 93.52,-803.79 107.97,-811.41" via=":27_10_0" dir="s" state="m"/>
    <connection from="1751" to="2051" fromLane="0" toLane="0" contPos="-4.00" shape="63.58,-788.37 67.64,-790.24 71.25,-791.54 74.36,-792.30 76.89,-792.63 79.45,-792.64 81.35,-792.37 83.19,-791.84 84.93,-791.03 86.51,-789.95 87.92,-788.65 89.13,-787.16 90.47,-784.99 91.53,-782.66 92.54,-779.62 93.39,-775.88 93.70,-773.97" via=":27_11_0" dir="l" state="m"/>
    <connection from="1790" to="2408" fromLane="0" toLane="0" contPos="-4.00" shape="86.37,-823.46 87.13,-819.61 88.10,-816.49 89.19,-814.11 90.23,-812.45 91.52,-810.97 93.06,-809.76 94.83,-808.92 96.74,-808.48 98.70,-808.42 100.65,-808.65 103.18,-809.31 106.21,-810.53 107.97,-811.41" via=":27_6_0" dir="r" state="M"/>
    <connection from="1790" to="2051" fromLane="0" toLane="0" contPos="-4.00" shape="86.37,-823.46 90.03,-798.72 93.70,-773.97" via=":27_7_0" dir="s" state="M"/>
    <connection from="1790" to="1750" fromLane="1" toLane="0" contPos="-4.00" shape="82.91,-822.91 83.21,-820.61 83.49,-817.14 83.51,-813.62 83.24,-810.10 82.64,-806.60 81.66,-803.17 80.28,-799.85 78.50,-796.73 76.36,-793.86 73.89,-791.26 71.16,-788.97 68.24,-786.98 65.17,-785.26" via=":27_8_0" dir="l" state="m"/>
    <connection from="1792" to="3828" fromLane="0" toLane="0" contPos="-4.00" via=":9_0_0" dir="s" state="M"/>
    <connection from="2053" to="1750" fromLane="0" toLane="0" contPos="-4.00" shape="86.77,-772.99 86.05,-776.77 85.13,-779.84 84.09,-782.18 83.09,-783.83 81.86,-785.30 80.39,-786.53 78.69,-787.42 76.84,-787.94 74.92,-788.10 73.01,-787.95 70.50,-787.41 67.48,-786.33 65.17,-785.26" via=":27_0_0" dir="r" state="M"/>
    <connection from="2053" to="1792" fromLane="0" toLane="0" contPos="-4.00" shape="86.77,-772.99 83.11,-797.70 79.45,-822.40" via=":27_1_0" dir="s" state="M"/>
    <connection from="2053" to="2408" fromLane="1" toLane="0" contPos="-4.00" shape="90.23,-773.49 89.75,-778.09 89.66,-781.55 89.84,-785.01 90.31,-788.45 91.11,-791.82 92.27,-795.08 93.80,-798.19 95.67,-801.11 97.87,-803.78 100.35,-806.21 103.06,-808.37 105.95,-810.27 107.97,-811.41" via=":27_2_0" dir="l" state="m"/>
    <connection from="2407" to="2051" fromLane="0" toLane="0" contPos="-4.00" shape="109.61,-808.32 107.79,-807.29 105.15,-805.55 102.70,-803.60 100.48,-801.42 98.51,-799.02 96.85,-796.41 95.49,-793.63 94.46,-790.70 93.74,-787.66 93.32,-784.55 93.17,-781.39 93.25,-778.23 93.70,-773.97" via=":27_3_0" dir="r" state="m"/>
    <connection from="2407" to="1750" fromLane="0" toLane="0" contPos="-4.00" shape="109.61,-808.32 95.14,-800.69 65.17,-785.26" via=":27_4_0" dir="s" state="m"/>
    <connection from="2407" to="1792" fromLane="0" toLane="0" contPos="-4.00" shape="109.61,-808.32 105.58,-806.37 101.98,-805.00 98.89,-804.18 96.35,-803.81 93.79,-803.78 91.89,-804.03 90.04,-804.55 88.30,-805.35 86.71,-806.43 85.30,-807.74 84.09,-809.22 82.74,-811.40 81.67,-813.73 80.65,-816.76 79.77,-820.50 79.45,-822.40" via=":27_5_0" dir="l" state="m"/>
    <connection from="3828" to="1729" fromLane="0" toLane="0" contPos="-4.00" via=":5_0_0" dir="s" state="M"/>

    <connection from=":27_0" to="1750" fromLane="0" toLane="0" dir="r" state="M"/>
    <connection from=":27_1" to="1792" fromLane="0" toLane="0" dir="s" state="M"/>
    <connection from=":27_2" to="2408" fromLane="0" toLane="0" dir="l" state="M"/>
    <connection from=":27_3" to="2051" fromLane="0" toLane="0" dir="r" state="M"/>
    <connection from=":27_4" to="1750" fromLane="0" toLane="0" dir="s" state="M"/>
    <connection from=":27_5" to="1792" fromLane="0" toLane="0" dir="l" state="M"/>
    <connection from=":27_6" to="2408" fromLane="0" toLane="0" dir="r" state="M"/>
    <connection from=":27_7" to="2051" fromLane="0" toLane="0" dir="s" state="M"/>
    <connection from=":27_8" to="1750" fromLane="0" toLane="0" dir="l" state="M"/>
    <connection from=":27_9" to="1792" fromLane="0" toLane="0" dir="r" state="M"/>
    <connection from=":27_10" to="2408" fromLane="0" toLane="0" dir="s" state="M"/>
    <connection from=":27_11" to="2051" fromLane="0" toLane="0" dir="l" state="M"/>
    <connection from=":28_0" to="1732" fromLane="0" toLane="0" dir="s" state="M"/>
    <connection from=":28_1" to="2302" fromLane="0" toLane="0" dir="l" state="M"/>
    <connection from=":28_2" to="2302" fromLane="0" toLane="0" dir="r" state="M"/>
    <connection from=":28_3" to="1728" fromLane="0" toLane="0" dir="s" state="M"/>
    <connection from=":29_0" to="1790" fromLane="0" toLane="0" dir="s" state="M"/>
    <connection from=":29_0" to="1790" fromLane="1" toLane="1" dir="s" state="M"/>
    <connection from=":5_0" to="1729" fromLane="0" toLane="0" dir="s" state="M"/>
    <connection from=":9_0" to="3828" fromLane="0" toLane="0" dir="s" state="M"/>

</net>