<!-- generated on 2020-12-18 17:09:43.410183 by ipykernel_launcher.py v1_2_0+5214-53edc58fcd
-->
<tlLogics/>
