<!-- generated on 2020-12-18 17:09:43.140874 by ipykernel_launcher.py v1_2_0+5214-53edc58fcd
-->
<edges>
	<edge from="1" function="normal" id="3" length="40.0" numLanes="1" priority="1" speed="36.11111111111111" spreadType="center" to="2">
		<lane allow="moped bicycle pedestrian custom1 trailer evehicle rail_urban ship private truck vip custom2 authority delivery rail_electric taxi tram army hov coach motorcycle passenger bus rail emergency" index="0" length="40.0" shape="0.0,17.1 0.404,17.1 0.8081,17.1 1.2121,17.1 1.6162,17.1 2.0202,17.1 2.4242,17.1 2.8283,17.1 3.2323,17.1 3.6364,17.1 4.0404,17.1 4.4444,17.1 4.8485,17.1 5.2525,17.1 5.6566,17.1 6.0606,17.1 6.4646,17.1 6.8687,17.1 7.2727,17.1 7.6768,17.1 8.0808,17.1 8.4848,17.1 8.8889,17.1 9.2929,17.1 9.697,17.1 10.101,17.1 10.5051,17.1 10.9091,17.1 11.3131,17.1 11.7172,17.1 12.1212,17.1 12.5253,17.1 12.9293,17.1 13.3333,17.1 13.7374,17.1 14.1414,17.1 14.5455,17.1 14.9495,17.1 15.3535,17.1 15.7576,17.1 16.1616,17.1 16.5657,17.1 16.9697,17.1 17.3737,17.1 17.7778,17.1 18.1818,17.1 18.5859,17.1 18.9899,17.1 19.3939,17.1 19.798,17.1 20.202,17.1 20.6061,17.1 21.0101,17.1 21.4141,17.1 21.8182,17.1 22.2222,17.1 22.6263,17.1 23.0303,17.1 23.4343,17.1 23.8384,17.1 24.2424,17.1 24.6465,17.1 25.0505,17.1 25.4545,17.1 25.8586,17.1 26.2626,17.1 26.6667,17.1 27.0707,17.1 27.4747,17.1 27.8788,17.1 28.2828,17.1 28.6869,17.1 29.0909,17.1 29.4949,17.1 29.899,17.1 30.303,17.1 30.7071,17.1 31.1111,17.1 31.5152,17.1 31.9192,17.1 32.3232,17.1 32.7273,17.1 33.1313,17.1 33.5354,17.1 33.9394,17.1 34.3434,17.1 34.7475,17.1 35.1515,17.1 35.5556,17.1 35.9596,17.1 36.3636,17.1 36.7677,17.1 37.1717,17.1 37.5758,17.1 37.9798,17.1 38.3838,17.1 38.7879,17.1 39.1919,17.1 39.596,17.1 40.0,17.1" speed="36.11111111111111" width="3.0000000000000018"/>
	</edge>
	<edge from="3" function="normal" id="4" length="40.0" numLanes="1" priority="1" speed="36.11111111111111" spreadType="center" to="4">
		<lane allow="moped bicycle pedestrian custom1 trailer evehicle rail_urban ship private truck vip custom2 authority delivery rail_electric taxi tram army hov coach motorcycle passenger bus rail emergency" index="0" length="40.0" shape="0.0,20.1 0.404,20.1 0.8081,20.1 1.2121,20.1 1.6162,20.1 2.0202,20.1 2.4242,20.1 2.8283,20.1 3.2323,20.1 3.6364,20.1 4.0404,20.1 4.4444,20.1 4.8485,20.1 5.2525,20.1 5.6566,20.1 6.0606,20.1 6.4646,20.1 6.8687,20.1 7.2727,20.1 7.6768,20.1 8.0808,20.1 8.4848,20.1 8.8889,20.1 9.2929,20.1 9.697,20.1 10.101,20.1 10.5051,20.1 10.9091,20.1 11.3131,20.1 11.7172,20.1 12.1212,20.1 12.5253,20.1 12.9293,20.1 13.3333,20.1 13.7374,20.1 14.1414,20.1 14.5455,20.1 14.9495,20.1 15.3535,20.1 15.7576,20.1 16.1616,20.1 16.5657,20.1 16.9697,20.1 17.3737,20.1 17.7778,20.1 18.1818,20.1 18.5859,20.1 18.9899,20.1 19.3939,20.1 19.798,20.1 20.202,20.1 20.6061,20.1 21.0101,20.1 21.4141,20.1 21.8182,20.1 22.2222,20.1 22.6263,20.1 23.0303,20.1 23.4343,20.1 23.8384,20.1 24.2424,20.1 24.6465,20.1 25.0505,20.1 25.4545,20.1 25.8586,20.1 26.2626,20.1 26.6667,20.1 27.0707,20.1 27.4747,20.1 27.8788,20.1 28.2828,20.1 28.6869,20.1 29.0909,20.1 29.4949,20.1 29.899,20.1 30.303,20.1 30.7071,20.1 31.1111,20.1 31.5152,20.1 31.9192,20.1 32.3232,20.1 32.7273,20.1 33.1313,20.1 33.5354,20.1 33.9394,20.1 34.3434,20.1 34.7475,20.1 35.1515,20.1 35.5556,20.1 35.9596,20.1 36.3636,20.1 36.7677,20.1 37.1717,20.1 37.5758,20.1 37.9798,20.1 38.3838,20.1 38.7879,20.1 39.1919,20.1 39.596,20.1 40.0,20.1" speed="36.11111111111111" width="3.0"/>
	</edge>
	<edge from="5" function="normal" id="5" length="16.564041883341172" numLanes="1" priority="1" speed="36.11111111111111" spreadType="center" to="6">
		<lane allow="moped bicycle pedestrian custom1 trailer evehicle rail_urban ship private vip custom2 authority delivery rail_electric taxi tram army hov coach motorcycle passenger rail emergency" index="0" length="16.564041883341172" shape="0.9,23.7607 3.0,23.7607 4.8,23.7607 6.3,23.7607 7.5,23.7607 8.4,23.7607 9.0,23.7607 9.0606,23.764400000000002 9.1212,23.76685 9.18185,23.7681 9.2424,23.768250000000002 9.303,23.76715 9.36365,23.76495 9.42425,23.761499999999998 9.48485,23.7569 9.545449999999999,23.75105 9.60605,23.74415 9.6667,23.735950000000003 9.7273,23.7266 9.787849999999999,23.7161 9.8485,23.7044 9.9091,23.691499999999998 9.9697,23.677500000000002 10.0303,23.66225 10.090900000000001,23.6458 10.1515,23.6282 10.21215,23.6094 10.2727,23.58945 10.333300000000001,23.568350000000002 10.39395,23.546 10.45455,23.5225 10.515149999999998,23.49785 10.57575,23.47195 10.63635,23.4449 10.697,23.4167 10.75755,23.38725 10.81815,23.3567 10.87875,23.32495 10.9394,23.29195 11.0,23.257849999999998 11.0606,23.22255 11.1212,23.18605 11.18185,23.1484 11.242450000000002,23.10955 11.303049999999999,23.069499999999998 11.36365,23.0283 11.42425,22.9859 11.48485,22.9423 11.5455,22.897550000000003 11.606100000000001,22.85165 11.66665,22.80455 11.727250000000002,22.7562 11.787849999999999,22.70675 11.848500000000001,22.656100000000002 11.90905,22.60425 11.9697,22.551250000000003 12.0303,22.49705 12.0909,22.441650000000003 12.1515,22.3851 12.2121,22.327350000000003 12.27275,22.26845 12.33335,22.2083 12.39395,22.14705 12.454550000000001,22.08455 12.515149999999998,22.020899999999997 12.57575,21.95615 12.63635,21.8901 12.69695,21.82295 12.7576,21.754550000000002 12.818200000000001,21.685000000000002 12.8788,21.61425 12.939350000000001,21.54235 13.0,21.4693 13.0606,21.395049999999998 13.1212,21.3196 13.181799999999999,21.2429 13.24245,21.1651 13.303049999999999,21.086100000000002 13.36365,21.00595 13.424199999999999,20.924599999999998 13.48485,20.842100000000002 13.54545,20.75835 13.60605,20.673450000000003 13.66665,20.5874 13.72725,20.5001 13.787849999999999,20.4117 13.848500000000001,20.3221 13.9091,20.2313 13.9697,20.1393 14.0303,20.046149999999997 14.0909,19.9518 14.151499999999999,19.8563 14.2121,19.7596 14.27275,19.6617 14.333300000000001,19.5626 14.39395,19.46235 14.45455,19.36095 14.51515,19.25835 14.57575,19.154600000000002 14.63635,19.0496 14.697,18.94345 14.75755,18.836100000000002 14.81815,18.7276 14.8788,18.61795 14.939400000000001,18.50705 15.0,18.395" speed="36.11111111111111" width="2.9945999999999984"/>
	</edge>
	<edge from="2" function="normal" id="6" length="14.5" numLanes="1" priority="1" speed="36.11111111111111" spreadType="center" to="7">
		<lane allow="moped bicycle pedestrian custom1 trailer evehicle rail_urban ship private truck vip custom2 authority delivery rail_electric taxi tram army hov coach motorcycle passenger bus rail emergency" index="0" length="14.5" shape="40.0,17.1 40.5,17.1 41.0,17.1 41.5,17.1 42.0,17.1 42.5,17.1 43.0,17.1 43.5,17.1 44.0,17.1 44.5,17.1 45.0,17.1 45.5,17.1 46.0,17.1 46.5,17.1 47.0,17.1 47.5,17.1 48.0,17.1 48.5,17.1 49.0,17.1 49.5,17.1 50.0,17.1 50.5,17.1 51.0,17.1 51.5,17.1 52.0,17.1 52.5,17.1 53.0,17.1 53.5,17.1 54.0,17.1 54.5,17.1" speed="36.11111111111111" width="3.0000000000000018"/>
	</edge>
	<edge from="4" function="normal" id="7" length="14.5" numLanes="1" priority="1" speed="36.11111111111111" spreadType="center" to="8">
		<lane allow="moped bicycle pedestrian custom1 trailer evehicle rail_urban ship private truck vip custom2 authority delivery rail_electric taxi tram army hov coach motorcycle passenger bus rail emergency" index="0" length="14.5" shape="40.0,20.1 40.5,20.1 41.0,20.1 41.5,20.1 42.0,20.1 42.5,20.1 43.0,20.1 43.5,20.1 44.0,20.1 44.5,20.1 45.0,20.1 45.5,20.1 46.0,20.1 46.5,20.1 47.0,20.1 47.5,20.1 48.0,20.1 48.5,20.1 49.0,20.1 49.5,20.1 50.0,20.1 50.5,20.1 51.0,20.1 51.5,20.1 52.0,20.1 52.5,20.1 53.0,20.1 53.5,20.1 54.0,20.1 54.5,20.1" speed="36.11111111111111" width="3.0"/>
	</edge>
</edges>
