<routes>
	<vehicle depart="0.1" departLane="0" departPos="8.404821335824552" departSpeed="3.7" id="1" type="bicycle">
		<route edges="5"/>
	</vehicle>
	<vehicle depart="0.1" departLane="0" departPos="20.0" departSpeed="10.0" id="2" type="passenger">
		<route edges="3 6"/>
	</vehicle>
</routes>
