<?xml version="1.0" encoding="UTF-8"?>

<!-- generated on Fri Dec 18 17:09:43 2020 by Eclipse SUMO netconvert Version 1.8.0
<configuration xmlns:xsi="http://www.w3.org/2001/XMLSchema-instance" xsi:noNamespaceSchemaLocation="http://sumo.dlr.de/xsd/netconvertConfiguration.xsd">

    <input>
        <node-files value="./converted_scenarios/THI-Bicycle/RUS_Bicycle-5_2_I-1-1/nodes.net.xml"/>
        <edge-files value="./converted_scenarios/THI-Bicycle/RUS_Bicycle-5_2_I-1-1/edges.net.xml"/>
        <connection-files value="./converted_scenarios/THI-Bicycle/RUS_Bicycle-5_2_I-1-1/_connections.net.xml"/>
        <tllogic-files value="./converted_scenarios/THI-Bicycle/RUS_Bicycle-5_2_I-1-1/_tll.net.xml"/>
    </input>

    <output>
        <output-file value="./converted_scenarios/THI-Bicycle/RUS_Bicycle-5_2_I-1-1/RUS_Bicycle-5_2_I-1-1.net.xml"/>
    </output>

    <processing>
        <plain.extend-edge-shape value="true"/>
        <geometry.remove.keep-edges.explicit value="true"/>
        <geometry.avoid-overlap value="true"/>
        <offset.disable-normalization value="true"/>
    </processing>

    <junctions>
        <no-turnarounds value="true"/>
        <junctions.internal-link-detail value="20"/>
    </junctions>

    <report>
        <aggregate-warnings value="5"/>
    </report>

    <random_number>
        <seed value="1234"/>
    </random_number>

</configuration>
-->

<net version="1.6" junctionCornerDetail="5" junctionLinkDetail="20" limitTurnSpeed="5.50" xmlns:xsi="http://www.w3.org/2001/XMLSchema-instance" xsi:noNamespaceSchemaLocation="http://sumo.dlr.de/xsd/net_file.xsd">

    <location netOffset="0.00,0.00" convBoundary="0.00,17.10,54.50,23.76" origBoundary="0.00,17.10,54.50,23.77" projParameter="!"/>

    <edge id=":2_0" function="internal">
        <lane id=":2_0_0" index="0" disallow="rail_fast" speed="36.11" length="0.10" width="3.00" shape="40.00,17.10 40.00,17.10"/>
    </edge>
    <edge id=":4_0" function="internal">
        <lane id=":4_0_0" index="0" disallow="rail_fast" speed="36.11" length="0.10" width="3.00" shape="40.00,20.10 40.00,20.10"/>
    </edge>

    <edge id="3" from="1" to="2" priority="1" spreadType="center" length="40.00">
        <lane id="3_0" index="0" disallow="rail_fast" speed="36.11" length="40.00" width="3.00" customShape="1" shape="0.00,17.10 0.40,17.10 0.81,17.10 1.21,17.10 1.62,17.10 2.02,17.10 2.42,17.10 2.83,17.10 3.23,17.10 3.64,17.10 4.04,17.10 4.44,17.10 4.85,17.10 5.25,17.10 5.66,17.10 6.06,17.10 6.46,17.10 6.87,17.10 7.27,17.10 7.68,17.10 8.08,17.10 8.48,17.10 8.89,17.10 9.29,17.10 9.70,17.10 10.10,17.10 10.51,17.10 10.91,17.10 11.31,17.10 11.72,17.10 12.12,17.10 12.53,17.10 12.93,17.10 13.33,17.10 13.74,17.10 14.14,17.10 14.55,17.10 14.95,17.10 15.35,17.10 15.76,17.10 16.16,17.10 16.57,17.10 16.97,17.10 17.37,17.10 17.78,17.10 18.18,17.10 18.59,17.10 18.99,17.10 19.39,17.10 19.80,17.10 20.20,17.10 20.61,17.10 21.01,17.10 21.41,17.10 21.82,17.10 22.22,17.10 22.63,17.10 23.03,17.10 23.43,17.10 23.84,17.10 24.24,17.10 24.65,17.10 25.05,17.10 25.45,17.10 25.86,17.10 26.26,17.10 26.67,17.10 27.07,17.10 27.47,17.10 27.88,17.10 28.28,17.10 28.69,17.10 29.09,17.10 29.49,17.10 29.90,17.10 30.30,17.10 30.71,17.10 31.11,17.10 31.52,17.10 31.92,17.10 32.32,17.10 32.73,17.10 33.13,17.10 33.54,17.10 33.94,17.10 34.34,17.10 34.75,17.10 35.15,17.10 35.56,17.10 35.96,17.10 36.36,17.10 36.77,17.10 37.17,17.10 37.58,17.10 37.98,17.10 38.38,17.10 38.79,17.10 39.19,17.10 39.60,17.10 40.00,17.10"/>
    </edge>
    <edge id="4" from="3" to="4" priority="1" spreadType="center" length="40.00">
        <lane id="4_0" index="0" disallow="rail_fast" speed="36.11" length="40.00" width="3.00" customShape="1" shape="0.00,20.10 0.40,20.10 0.81,20.10 1.21,20.10 1.62,20.10 2.02,20.10 2.42,20.10 2.83,20.10 3.23,20.10 3.64,20.10 4.04,20.10 4.44,20.10 4.85,20.10 5.25,20.10 5.66,20.10 6.06,20.10 6.46,20.10 6.87,20.10 7.27,20.10 7.68,20.10 8.08,20.10 8.48,20.10 8.89,20.10 9.29,20.10 9.70,20.10 10.10,20.10 10.51,20.10 10.91,20.10 11.31,20.10 11.72,20.10 12.12,20.10 12.53,20.10 12.93,20.10 13.33,20.10 13.74,20.10 14.14,20.10 14.55,20.10 14.95,20.10 15.35,20.10 15.76,20.10 16.16,20.10 16.57,20.10 16.97,20.10 17.37,20.10 17.78,20.10 18.18,20.10 18.59,20.10 18.99,20.10 19.39,20.10 19.80,20.10 20.20,20.10 20.61,20.10 21.01,20.10 21.41,20.10 21.82,20.10 22.22,20.10 22.63,20.10 23.03,20.10 23.43,20.10 23.84,20.10 24.24,20.10 24.65,20.10 25.05,20.10 25.45,20.10 25.86,20.10 26.26,20.10 26.67,20.10 27.07,20.10 27.47,20.10 27.88,20.10 28.28,20.10 28.69,20.10 29.09,20.10 29.49,20.10 29.90,20.10 30.30,20.10 30.71,20.10 31.11,20.10 31.52,20.10 31.92,20.10 32.32,20.10 32.73,20.10 33.13,20.10 33.54,20.10 33.94,20.10 34.34,20.10 34.75,20.10 35.15,20.10 35.56,20.10 35.96,20.10 36.36,20.10 36.77,20.10 37.17,20.10 37.58,20.10 37.98,20.10 38.38,20.10 38.79,20.10 39.19,20.10 39.60,20.10 40.00,20.10"/>
    </edge>
    <edge id="5" from="5" to="6" priority="1" spreadType="center" length="16.56">
        <lane id="5_0" index="0" disallow="bus truck rail_fast" speed="36.11" length="16.56" width="2.99" customShape="1" shape="0.90,23.76 3.00,23.76 4.80,23.76 6.30,23.76 7.50,23.76 8.40,23.76 9.00,23.76 9.12,23.77 9.24,23.77 9.36,23.76 9.48,23.76 9.61,23.74 9.73,23.73 9.85,23.70 9.97,23.68 10.09,23.65 10.21,23.61 10.33,23.57 10.45,23.52 10.58,23.47 10.70,23.42 10.82,23.36 10.94,23.29 11.06,23.22 11.18,23.15 11.30,23.07 11.42,22.99 11.55,22.90 11.67,22.80 11.79,22.71 11.91,22.60 12.03,22.50 12.15,22.39 12.27,22.27 12.39,22.15 12.52,22.02 12.64,21.89 12.76,21.75 12.88,21.61 13.00,21.47 13.12,21.32 13.24,21.17 13.36,21.01 13.42,20.92 13.48,20.84 13.55,20.76 13.61,20.67 13.67,20.59 13.73,20.50 13.79,20.41 13.85,20.32 13.91,20.23 13.97,20.14 14.03,20.05 14.09,19.95 14.15,19.86 14.21,19.76 14.27,19.66 14.33,19.56 14.39,19.46 14.45,19.36 14.52,19.26 14.58,19.15 14.64,19.05 14.70,18.94 14.76,18.84 14.82,18.73 14.88,18.62 14.94,18.51 15.00,18.39"/>
    </edge>
    <edge id="6" from="2" to="7" priority="1" spreadType="center" length="14.50">
        <lane id="6_0" index="0" disallow="rail_fast" speed="36.11" length="14.50" width="3.00" customShape="1" shape="40.00,17.10 40.50,17.10 41.00,17.10 41.50,17.10 42.00,17.10 42.50,17.10 43.00,17.10 43.50,17.10 44.00,17.10 44.50,17.10 45.00,17.10 45.50,17.10 46.00,17.10 46.50,17.10 47.00,17.10 47.50,17.10 48.00,17.10 48.50,17.10 49.00,17.10 49.50,17.10 50.00,17.10 50.50,17.10 51.00,17.10 51.50,17.10 52.00,17.10 52.50,17.10 53.00,17.10 53.50,17.10 54.00,17.10 54.50,17.10"/>
    </edge>
    <edge id="7" from="4" to="8" priority="1" spreadType="center" length="14.50">
        <lane id="7_0" index="0" disallow="rail_fast" speed="36.11" length="14.50" width="3.00" customShape="1" shape="40.00,20.10 40.50,20.10 41.00,20.10 41.50,20.10 42.00,20.10 42.50,20.10 43.00,20.10 43.50,20.10 44.00,20.10 44.50,20.10 45.00,20.10 45.50,20.10 46.00,20.10 46.50,20.10 47.00,20.10 47.50,20.10 48.00,20.10 48.50,20.10 49.00,20.10 49.50,20.10 50.00,20.10 50.50,20.10 51.00,20.10 51.50,20.10 52.00,20.10 52.50,20.10 53.00,20.10 53.50,20.10 54.00,20.10 54.50,20.10"/>
    </edge>

    <junction id="1" type="dead_end" x="0.00" y="17.10" incLanes="" intLanes="" shape="0.00,18.60 0.00,15.60"/>
    <junction id="2" type="priority" x="40.00" y="17.10" incLanes="3_0" intLanes=":2_0_0" shape="40.00,18.60 40.00,15.60 40.00,18.60">
        <request index="0" response="0" foes="0" cont="0"/>
    </junction>
    <junction id="3" type="dead_end" x="0.00" y="20.10" incLanes="" intLanes="" shape="0.00,21.60 0.00,18.60"/>
    <junction id="4" type="priority" x="40.00" y="20.10" incLanes="4_0" intLanes=":4_0_0" shape="40.00,21.60 40.00,18.60 40.00,21.60">
        <request index="0" response="0" foes="0" cont="0"/>
    </junction>
    <junction id="5" type="dead_end" x="0.90" y="23.76" incLanes="" intLanes="" shape="0.90,25.26 0.90,22.26"/>
    <junction id="6" type="dead_end" x="15.00" y="18.39" incLanes="5_0" intLanes="" shape="13.68,17.68 16.32,19.11"/>
    <junction id="7" type="dead_end" x="54.50" y="17.10" incLanes="6_0" intLanes="" shape="54.50,15.60 54.50,18.60"/>
    <junction id="8" type="dead_end" x="54.50" y="20.10" incLanes="7_0" intLanes="" shape="54.50,18.60 54.50,21.60"/>

    <connection from="3" to="6" fromLane="0" toLane="0" via=":2_0_0" dir="s" state="M"/>
    <connection from="4" to="7" fromLane="0" toLane="0" via=":4_0_0" dir="s" state="M"/>

    <connection from=":2_0" to="6" fromLane="0" toLane="0" dir="s" state="M"/>
    <connection from=":4_0" to="7" fromLane="0" toLane="0" dir="s" state="M"/>

</net>
