<routes>
	<vehicle depart="0.1" departLane="0" departPos="12.668947327638477" departSpeed="0.42135992" id="310" type="bicycle">
		<route edges=":34_3 78020"/>
	</vehicle>
	<vehicle depart="0.1" departLane="0" departPos="25.28770034390611" departSpeed="0.87132727" id="322" type="passenger">
		<route edges="77394 78020"/>
	</vehicle>
	<vehicle depart="0.1" departLane="0" departPos="18.17410192675655" departSpeed="4.3465277" id="327" type="passenger">
		<route edges="78023 78020"/>
	</vehicle>
	<vehicle depart="0.1" departLane="0" departPos="38.657905630558396" departSpeed="7.4577874" id="332" type="passenger">
		<route edges=":35_2 78023 78020"/>
	</vehicle>
	<vehicle depart="0.1" departLane="0" departPos="24.418936885773814" departSpeed="15.566977" id="345" type="passenger">
		<route edges=":34_5 78024 78027"/>
	</vehicle>
	<vehicle depart="0.1" departLane="0" departPos="2.5" departSpeed="14.900493" id="347" type="passenger">
		<route edges=":34_5 78024 78027"/>
	</vehicle>
	<vehicle depart="0.1" departLane="0" departPos="22.006874441867293" departSpeed="6.5425994" id="352" type="passenger">
		<route edges="78021 77393"/>
	</vehicle>
	<vehicle depart="0.1" departLane="0" departPos="11.3584004295772" departSpeed="4.9222074" id="356" type="passenger">
		<route edges="78021 77393"/>
	</vehicle>
	<vehicle depart="0.1" departLane="0" departPos="3.75" departSpeed="2.1463142" id="324" type="truck">
		<route edges=":34_0 78020"/>
	</vehicle>
</routes>
