<routes>
	<vehicle depart="0.1" departLane="0" departPos="5.788840752987742" departSpeed="6.8968272" id="39" type="bicycle">
		<route edges=":99_0 85671 85673"/>
	</vehicle>
	<vehicle depart="0.1" departLane="0" departPos="62.949321507040644" departSpeed="6.1841633" id="3116" type="bus">
		<route edges="85357 85662"/>
	</vehicle>
	<vehicle depart="0.1" departLane="0" departPos="8.170683442870512" departSpeed="1.2954161" id="34" type="passenger">
		<route edges=":105_0 85545"/>
	</vehicle>
	<vehicle depart="0.1" departLane="0" departPos="9.749872836755308" departSpeed="12.009077" id="318" type="passenger">
		<route edges=":105_1 85258 86689 85872"/>
	</vehicle>
	<vehicle depart="0.1" departLane="0" departPos="9.836952409311117" departSpeed="1.6078741" id="320" type="passenger">
		<route edges="85663 85358"/>
	</vehicle>
	<vehicle depart="0.1" departLane="0" departPos="27.994519369990055" departSpeed="8.264654" id="3100" type="passenger">
		<route edges=":104_1 85354 85883"/>
	</vehicle>
	<vehicle depart="0.1" departLane="0" departPos="15.123605834109414" departSpeed="6.3883605" id="3107" type="passenger">
		<route edges=":104_1 85354"/>
	</vehicle>
	<vehicle depart="0.1" departLane="0" departPos="2.5" departSpeed="6.7118958" id="3110" type="passenger">
		<route edges=":104_1 85354"/>
	</vehicle>
</routes>
