<!-- generated on Tue Feb  9 22:09:07 2021 by Eclipse SUMO netconvert Version 1.8.0
<configuration xmlns:xsi="http://www.w3.org/2001/XMLSchema-instance" xsi:noNamespaceSchemaLocation="http://sumo.dlr.de/xsd/netconvertConfiguration.xsd">

    <input>
        <node-files value="./converted_scenarios/scenario-factory/DEU_Ibbenbueren-14_1_I-1-1/DEU_Ibbenbueren-14_1_I-1-1.nod.xml"/>
        <edge-files value="./converted_scenarios/scenario-factory/DEU_Ibbenbueren-14_1_I-1-1/DEU_Ibbenbueren-14_1_I-1-1.edg.xml"/>
        <connection-files value="./converted_scenarios/scenario-factory/DEU_Ibbenbueren-14_1_I-1-1/DEU_Ibbenbueren-14_1_I-1-1.con.xml"/>
        <tllogic-files value="./converted_scenarios/scenario-factory/DEU_Ibbenbueren-14_1_I-1-1/DEU_Ibbenbueren-14_1_I-1-1.tll.xml"/>
        <type-files value="/home/zen/commonroad-interactive-benchmarks/install/commonroad-map-tool/crmapconverter/sumo_map/templates/DEU.typ.xml"/>
    </input>

    <output>
        <output-file value="./converted_scenarios/scenario-factory/DEU_Ibbenbueren-14_1_I-1-1/DEU_Ibbenbueren-14_1_I-1-1.net.xml"/>
    </output>

    <processing>
        <geometry.remove.keep-edges.explicit value="true"/>
        <geometry.avoid-overlap value="true"/>
        <offset.disable-normalization value="true"/>
    </processing>

    <junctions>
        <no-turnarounds value="true"/>
        <junctions.internal-link-detail value="20"/>
    </junctions>

    <report>
        <aggregate-warnings value="5"/>
    </report>

    <random_number>
        <seed value="1234"/>
    </random_number>

</configuration>
--><net xmlns:xsi="http://www.w3.org/2001/XMLSchema-instance" version="1.6" junctionCornerDetail="5" junctionLinkDetail="20" limitTurnSpeed="5.50" xsi:noNamespaceSchemaLocation="http://sumo.dlr.de/xsd/net_file.xsd">

    <location netOffset="0.00,0.00" convBoundary="-618.38,-172.78,-439.31,39.65" origBoundary="-618.38,-172.78,-439.31,40.65" projParameter="!"/>

    <type id="highway.bridleway" priority="1" speed="2.78" allow="pedestrian" oneway="1" width="2.00"/>
    <type id="highway.bus_guideway" priority="1" speed="27.78" allow="bus" oneway="1"/>
    <type id="highway.cycleway" priority="1" speed="8.33" allow="bicycle" oneway="0" width="1.00"/>
    <type id="highway.footway" priority="1" speed="2.78" allow="pedestrian" oneway="1" width="2.00"/>
    <type id="highway.ford" priority="1" speed="2.78" allow="army" oneway="0"/>
    <type id="highway.living_street" priority="2" speed="2.78" disallow="tram rail_urban rail rail_electric rail_fast ship" oneway="0"/>
    <type id="highway.motorway" priority="14" speed="39.44" allow="private emergency authority army vip passenger hov taxi bus coach delivery truck trailer motorcycle evehicle custom1 custom2" oneway="1"/>
    <type id="highway.motorway_link" priority="9" speed="22.22" allow="private emergency authority army vip passenger hov taxi bus coach delivery truck trailer motorcycle evehicle custom1 custom2" oneway="1"/>
    <type id="highway.path" priority="1" speed="2.78" allow="pedestrian bicycle" oneway="0" width="2.00"/>
    <type id="highway.pedestrian" priority="1" speed="2.78" allow="pedestrian" oneway="1" width="2.00"/>
    <type id="highway.primary" priority="12" speed="27.78" disallow="pedestrian tram rail_urban rail rail_electric rail_fast ship" oneway="0"/>
    <type id="highway.primary_link" priority="7" speed="22.22" disallow="pedestrian tram rail_urban rail rail_electric rail_fast ship" oneway="0"/>
    <type id="highway.raceway" priority="15" speed="83.33" allow="vip" oneway="0"/>
    <type id="highway.residential" priority="3" speed="13.89" disallow="pedestrian tram rail_urban rail rail_electric rail_fast ship" oneway="0"/>
    <type id="highway.secondary" priority="11" speed="27.78" disallow="pedestrian tram rail_urban rail rail_electric rail_fast ship" oneway="0"/>
    <type id="highway.secondary_link" priority="6" speed="22.22" disallow="pedestrian tram rail_urban rail rail_electric rail_fast ship" oneway="0"/>
    <type id="highway.service" priority="1" speed="5.56" allow="pedestrian delivery bicycle" oneway="0"/>
    <type id="highway.stairs" priority="1" speed="1.39" allow="pedestrian" oneway="1" width="2.00"/>
    <type id="highway.step" priority="1" speed="1.39" allow="pedestrian" oneway="1" width="2.00"/>
    <type id="highway.steps" priority="1" speed="1.39" allow="pedestrian" oneway="1" width="2.00"/>
    <type id="highway.tertiary" priority="10" speed="22.22" disallow="pedestrian tram rail_urban rail rail_electric rail_fast ship" oneway="0"/>
    <type id="highway.tertiary_link" priority="5" speed="22.22" disallow="pedestrian tram rail_urban rail rail_electric rail_fast ship" oneway="0"/>
    <type id="highway.track" priority="1" speed="5.56" allow="pedestrian motorcycle moped bicycle" oneway="0"/>
    <type id="highway.trunk" priority="13" speed="27.78" disallow="pedestrian bicycle tram rail_urban rail rail_electric rail_fast ship" oneway="0"/>
    <type id="highway.trunk_link" priority="8" speed="22.22" disallow="pedestrian bicycle tram rail_urban rail rail_electric rail_fast ship" oneway="0"/>
    <type id="highway.unclassified" priority="4" speed="13.89" disallow="pedestrian tram rail_urban rail rail_electric rail_fast ship" oneway="0"/>
    <type id="highway.unsurfaced" priority="1" speed="8.33" disallow="tram rail_urban rail rail_electric rail_fast ship" oneway="0"/>
    <type id="railway.highspeed" priority="21" speed="69.44" allow="rail_fast" oneway="1"/>
    <type id="railway.light_rail" priority="19" speed="27.78" allow="rail_urban" oneway="1"/>
    <type id="railway.preserved" priority="16" speed="27.78" allow="rail" oneway="1"/>
    <type id="railway.rail" priority="20" speed="44.44" allow="rail" oneway="1"/>
    <type id="railway.subway" priority="18" speed="27.78" allow="rail_urban" oneway="1"/>
    <type id="railway.tram" priority="17" speed="13.89" allow="tram" oneway="1"/>

    <edge id=":14_0" function="internal">
        <lane id=":14_0_0" index="0" disallow="pedestrian tram rail_urban rail rail_electric rail_fast ship" speed="36.11" length="2.94" width="3.50" shape="-601.94,15.50 -600.25,13.09"/>
    </edge>
    <edge id=":16_0" function="internal">
        <lane id=":16_0_0" index="0" disallow="pedestrian tram rail_urban rail rail_electric rail_fast ship" speed="36.11" length="2.90" width="3.50" shape="-551.79,-44.16 -553.71,-41.98"/>
    </edge>
    <edge id=":20_0" function="internal">
        <lane id=":20_0_0" index="0" disallow="pedestrian tram rail_urban rail rail_electric rail_fast ship" speed="36.11" length="0.25" width="3.50" shape="-532.30,-64.23 -532.46,-64.04"/>
    </edge>
    <edge id=":24_0" function="internal">
        <lane id=":24_0_0" index="0" disallow="pedestrian tram rail_urban rail rail_electric rail_fast ship" speed="11.17" length="29.55" width="3.50" shape="-494.15,-83.22 -496.83,-85.35 -498.69,-86.53 -500.65,-87.49 -502.72,-88.18 -503.72,-88.39 -504.76,-88.52 -505.80,-88.55 -506.84,-88.49 -507.87,-88.34 -508.89,-88.10 -509.87,-87.78 -511.84,-86.87 -513.69,-85.70 -515.43,-84.31 -517.05,-82.76 -519.34,-80.16"/>
    </edge>
    <edge id=":24_1" function="internal">
        <lane id=":24_1_0" index="0" disallow="pedestrian tram rail_urban rail rail_electric rail_fast ship" speed="36.11" length="42.05" width="3.50" shape="-494.15,-83.22 -495.69,-84.58 -515.91,-101.91 -525.93,-110.76"/>
    </edge>
    <edge id=":24_2" function="internal">
        <lane id=":24_2_0" index="0" disallow="pedestrian tram rail_urban rail rail_electric rail_fast ship" speed="13.16" length="38.72" width="3.50" shape="-494.15,-83.22 -497.08,-86.04 -499.35,-88.64 -501.36,-91.47 -502.74,-94.00 -503.81,-96.68 -504.37,-98.92 -504.65,-101.21 -504.63,-103.52 -504.32,-105.81 -503.54,-108.58 -502.41,-111.24 -500.99,-113.75 -498.99,-116.58 -498.61,-117.05"/>
    </edge>
    <edge id=":24_3" function="internal">
        <lane id=":24_3_0" index="0" disallow="pedestrian tram rail_urban rail rail_electric rail_fast ship" speed="11.72" length="30.45" width="3.50" shape="-493.17,-112.65 -495.22,-109.86 -496.68,-107.38 -497.84,-104.76 -498.49,-102.56 -498.84,-100.29 -498.83,-97.99 -498.45,-95.73 -497.71,-93.56 -496.67,-91.51 -495.02,-89.16 -493.10,-87.03 -491.83,-85.85"/>
    </edge>
    <edge id=":24_4" function="internal">
        <lane id=":24_4_0" index="0" disallow="pedestrian tram rail_urban rail rail_electric rail_fast ship" speed="36.11" length="41.72" width="3.50" shape="-493.17,-112.65 -506.25,-96.41 -519.34,-80.16"/>
    </edge>
    <edge id=":24_5" function="internal">
        <lane id=":24_5_0" index="0" disallow="pedestrian tram rail_urban rail rail_electric rail_fast ship" speed="12.01" length="35.27" width="3.50" shape="-495.89,-114.85 -498.59,-111.78 -500.55,-109.90 -502.66,-108.21 -504.94,-106.74 -506.15,-106.13 -507.40,-105.60 -508.69,-105.18 -510.00,-104.86 -511.35,-104.68 -512.70,-104.62 -514.05,-104.70 -515.39,-104.89 -516.71,-105.21 -518.00,-105.64 -520.46,-106.77 -522.76,-108.20 -524.90,-109.86 -525.93,-110.76"/>
    </edge>
    <edge id=":24_6" function="internal">
        <lane id=":24_6_0" index="0" disallow="pedestrian tram rail_urban rail rail_electric rail_fast ship" speed="11.01" length="29.45" width="3.50" shape="-523.57,-113.34 -522.70,-112.58 -520.85,-111.15 -518.91,-109.95 -516.85,-109.01 -515.83,-108.69 -514.77,-108.44 -513.70,-108.29 -512.63,-108.24 -511.55,-108.30 -510.49,-108.46 -509.43,-108.72 -508.40,-109.07 -507.38,-109.51 -506.41,-110.01 -504.47,-111.26 -502.67,-112.72 -500.99,-114.34 -498.61,-117.05"/>
    </edge>
    <edge id=":24_7" function="internal">
        <lane id=":24_7_0" index="0" disallow="pedestrian tram rail_urban rail rail_electric rail_fast ship" speed="36.11" length="41.99" width="3.50" shape="-523.57,-113.34 -513.59,-104.53 -493.37,-87.21 -491.83,-85.85"/>
    </edge>
    <edge id=":24_8" function="internal">
        <lane id=":24_8_0" index="0" disallow="pedestrian tram rail_urban rail rail_electric rail_fast ship" speed="13.20" length="37.83" width="3.50" shape="-523.57,-113.34 -520.71,-110.52 -518.49,-107.90 -516.55,-105.06 -515.21,-102.53 -514.21,-99.85 -513.69,-97.62 -513.45,-95.34 -513.52,-93.05 -513.87,-90.79 -514.68,-88.05 -515.85,-85.43 -517.30,-82.96 -519.34,-80.16"/>
    </edge>
    <edge id=":24_9" function="internal">
        <lane id=":24_9_0" index="0" disallow="pedestrian tram rail_urban rail rail_electric rail_fast ship" speed="11.74" length="29.66" width="3.50" shape="-524.78,-84.56 -522.72,-87.39 -521.26,-89.90 -520.12,-92.58 -519.51,-94.82 -519.23,-97.13 -519.32,-99.45 -519.80,-101.72 -520.62,-103.89 -521.75,-105.93 -523.49,-108.25 -525.50,-110.36 -525.93,-110.76"/>
    </edge>
    <edge id=":24_10" function="internal">
        <lane id=":24_10_0" index="0" disallow="pedestrian tram rail_urban rail rail_electric rail_fast ship" speed="36.11" length="41.72" width="3.50" shape="-524.78,-84.56 -511.70,-100.80 -498.61,-117.05"/>
    </edge>
    <edge id=":24_11" function="internal">
        <lane id=":24_11_0" index="0" disallow="pedestrian tram rail_urban rail rail_electric rail_fast ship" speed="12.18" length="35.31" width="3.50" shape="-522.06,-82.36 -519.46,-85.32 -517.56,-87.12 -515.52,-88.74 -513.30,-90.14 -510.93,-91.22 -509.69,-91.62 -508.41,-91.92 -507.12,-92.10 -505.81,-92.17 -504.51,-92.12 -503.21,-91.95 -501.94,-91.68 -499.46,-90.85 -497.12,-89.69 -494.91,-88.29 -491.83,-85.85"/>
    </edge>
    <edge id=":25_0" function="internal">
        <lane id=":25_0_0" index="0" disallow="pedestrian tram rail_urban rail rail_electric rail_fast ship" speed="36.11" length="8.02" width="3.50" shape="-548.92,-53.77 -544.19,-60.25"/>
        <lane id=":25_0_1" index="1" disallow="pedestrian tram rail_urban rail rail_electric rail_fast ship" speed="36.11" length="8.04" width="3.50" shape="-548.08,-53.06 -544.38,-56.70 -542.36,-58.71"/>
    </edge>
    <edge id=":26_0" function="internal">
        <lane id=":26_0_0" index="0" disallow="pedestrian tram rail_urban rail rail_electric rail_fast ship" speed="36.11" length="3.01" width="3.50" shape="-597.36,15.06 -599.00,17.58"/>
    </edge>
    <edge id=":26_1" function="internal">
        <lane id=":26_1_0" index="0" disallow="pedestrian tram rail_urban rail rail_electric rail_fast ship" speed="36.11" length="3.01" width="3.50" shape="-597.36,15.06 -599.09,17.52"/>
    </edge>

    <edge id="30906" from="12" to="24" priority="3" type="highway.residential" spreadType="center" length="70.07" shape="-558.98,-172.78 -507.64,-99.56">
        <lane id="30906_0" index="0" disallow="pedestrian tram rail_urban rail rail_electric rail_fast ship" speed="36.11" length="70.07" width="3.50" customShape="1" shape="-558.98,-172.78 -551.56,-155.94 -547.68,-146.70 -545.07,-140.73 -542.77,-136.28 -540.16,-132.01 -537.26,-127.93 -533.48,-123.25 -529.73,-119.21 -523.52,-113.29"/>
    </edge>
    <edge id="30907" from="24" to="13" priority="3" type="highway.residential" spreadType="center" length="70.00" shape="-510.50,-97.55 -561.60,-170.04">
        <lane id="30907_0" index="0" disallow="pedestrian tram rail_urban rail rail_electric rail_fast ship" speed="36.11" length="70.00" width="3.50" customShape="1" shape="-525.93,-110.76 -532.21,-116.74 -536.07,-120.90 -539.96,-125.69 -542.96,-129.90 -545.67,-134.31 -548.07,-138.89 -550.75,-144.97 -554.66,-154.29 -561.60,-170.04"/>
    </edge>
    <edge id="30966" from="25" to="24" priority="3" type="highway.residential" spreadType="center" length="31.12" shape="-545.90,-56.46 -511.73,-100.89">
        <lane id="30966_0" index="0" disallow="pedestrian tram rail_urban rail rail_electric rail_fast ship" speed="36.11" length="31.12" width="3.50" customShape="1" shape="-544.55,-60.55 -535.41,-71.40 -524.77,-84.57"/>
        <lane id="30966_1" index="1" disallow="pedestrian tram rail_urban rail rail_electric rail_fast ship" speed="36.11" length="31.18" width="3.50" customShape="1" shape="-541.87,-58.30 -532.70,-69.18 -522.05,-82.37"/>
    </edge>
    <edge id="30968" from="24" to="20" priority="3" type="highway.residential" spreadType="center" length="20.54" shape="-507.64,-97.61 -532.38,-64.13">
        <lane id="30968_0" index="0" disallow="pedestrian tram rail_urban rail rail_electric rail_fast ship" speed="36.11" length="20.54" width="3.50" customShape="1" shape="-519.34,-80.16 -530.04,-66.91 -532.30,-64.23"/>
    </edge>
    <edge id="31221" from="24" to="21" priority="3" type="highway.residential" spreadType="center" length="31.75" shape="-510.52,-99.59 -478.68,-141.77">
        <lane id="31221_0" index="0" disallow="pedestrian tram rail_urban rail rail_electric rail_fast ship" speed="36.11" length="31.75" width="3.50" customShape="1" shape="-498.61,-117.05 -488.65,-129.40 -478.68,-141.77"/>
    </edge>
    <edge id="31223" from="22" to="24" priority="3" type="highway.residential" spreadType="center" length="31.78" shape="-474.60,-138.47 -506.45,-96.30">
        <lane id="31223_0" index="0" disallow="pedestrian tram rail_urban rail rail_electric rail_fast ship" speed="36.11" length="31.79" width="3.50" customShape="1" shape="-473.23,-137.38 -483.20,-125.01 -493.18,-112.63"/>
        <lane id="31223_1" index="1" disallow="pedestrian tram rail_urban rail rail_electric rail_fast ship" speed="36.11" length="31.78" width="3.50" customShape="1" shape="-475.96,-139.57 -485.93,-127.21 -495.90,-114.83"/>
    </edge>
    <edge id="31435" from="14" to="25" priority="3" type="highway.residential" spreadType="center" length="84.36">
        <lane id="31435_0" index="0" disallow="pedestrian tram rail_urban rail rail_electric rail_fast ship" speed="36.11" length="84.36" width="3.50" customShape="1" shape="-600.25,13.09 -587.24,-6.19 -582.46,-12.70 -575.25,-21.79 -548.60,-53.50"/>
    </edge>
    <edge id="31436" from="16" to="26" priority="3" type="highway.residential" spreadType="center" length="71.90">
        <lane id="31436_0" index="0" disallow="pedestrian tram rail_urban rail rail_electric rail_fast ship" speed="36.11" length="71.90" width="3.50" customShape="1" shape="-553.71,-41.98 -572.51,-19.61 -579.67,-10.58 -584.40,-4.15 -597.36,15.06"/>
    </edge>
    <edge id="32057" from="24" to="10" priority="3" type="highway.residential" spreadType="center" length="70.00" shape="-507.96,-99.92 -439.31,-39.58">
        <lane id="32057_0" index="0" disallow="pedestrian tram rail_urban rail rail_electric rail_fast ship" speed="36.11" length="70.00" width="3.50" customShape="1" shape="-491.83,-85.85 -446.27,-45.56 -439.31,-39.58"/>
    </edge>
    <edge id="32058" from="11" to="24" priority="3" type="highway.residential" spreadType="center" length="70.01" shape="-441.62,-36.95 -510.27,-97.29">
        <lane id="32058_0" index="0" disallow="pedestrian tram rail_urban rail rail_electric rail_fast ship" speed="36.11" length="70.01" width="3.50" customShape="1" shape="-441.62,-36.95 -448.56,-42.92 -494.15,-83.23"/>
    </edge>
    <edge id="33497" from="20" to="16" priority="3" type="highway.residential" spreadType="center" length="27.74">
        <lane id="33497_0" index="0" disallow="pedestrian tram rail_urban rail rail_electric rail_fast ship" speed="36.11" length="27.74" width="3.50" customShape="1" shape="-532.46,-64.04 -535.89,-60.24 -541.82,-54.32 -548.54,-47.71 -551.79,-44.16"/>
    </edge>
    <edge id="35325" from="23" to="14" priority="3" type="highway.residential" spreadType="center" length="26.78">
        <lane id="35325_0" index="0" disallow="pedestrian tram rail_urban rail rail_electric rail_fast ship" speed="36.11" length="26.78" width="3.50" customShape="1" shape="-618.38,36.63 -614.63,31.59 -604.76,19.38 -601.94,15.50"/>
    </edge>
    <edge id="35921" from="26" to="27" priority="3" type="highway.residential" spreadType="center" length="26.79">
        <lane id="35921_0" index="0" disallow="pedestrian tram rail_urban rail rail_electric rail_fast ship" speed="36.11" length="26.79" width="3.50" customShape="1" shape="-599.09,17.52 -601.93,21.44 -611.81,33.67 -615.53,38.66"/>
    </edge>
    <edge id="35922" from="26" to="27" priority="3" type="highway.residential" spreadType="center" length="26.82">
        <lane id="35922_0" index="0" disallow="pedestrian tram rail_urban rail rail_electric rail_fast ship" speed="36.11" length="26.82" width="3.50" customShape="1" shape="-599.00,17.58 -601.42,21.41 -609.09,35.11 -612.08,39.81 -612.65,40.65"/>
    </edge>

    <junction id="10" type="dead_end" x="-439.31" y="-39.58" incLanes="32057_0" intLanes="" shape="-438.17,-40.91 -440.45,-38.25" rightOfWay="edgePriority"/>
    <junction id="11" type="dead_end" x="-441.62" y="-36.95" incLanes="" intLanes="" shape="-440.48,-38.28 -442.76,-35.63" rightOfWay="edgePriority"/>
    <junction id="12" type="dead_end" x="-558.98" y="-172.78" incLanes="" intLanes="" shape="-560.58,-172.08 -557.38,-173.49" rightOfWay="edgePriority"/>
    <junction id="13" type="dead_end" x="-561.60" y="-170.04" incLanes="30907_0" intLanes="" shape="-563.20,-169.34 -560.00,-170.75" rightOfWay="edgePriority"/>
    <junction id="14" type="priority" x="-601.08" y="14.31" incLanes="35325_0" intLanes=":14_0_0" shape="-598.80,14.07 -601.70,12.11 -603.35,14.47 -600.52,16.53" rightOfWay="edgePriority">
        <request index="0" response="0" foes="0" cont="0"/>
    </junction>
    <junction id="16" type="priority" x="-552.78" y="-43.09" incLanes="33497_0" intLanes=":16_0_0" shape="-550.50,-42.98 -553.08,-45.34 -555.05,-43.10 -552.37,-40.85" rightOfWay="edgePriority">
        <request index="0" response="0" foes="0" cont="0"/>
    </junction>
    <junction id="20" type="priority" x="-532.38" y="-64.13" incLanes="30968_0" intLanes=":20_0_0" shape="-530.96,-63.10 -533.64,-65.35 -533.76,-65.21 -531.16,-62.87" rightOfWay="edgePriority">
        <request index="0" response="0" foes="0" cont="0"/>
    </junction>
    <junction id="21" type="dead_end" x="-478.68" y="-141.77" incLanes="31221_0" intLanes="" shape="-480.04,-142.87 -477.31,-140.68" rightOfWay="edgePriority"/>
    <junction id="22" type="dead_end" x="-474.60" y="-138.47" incLanes="" intLanes="" shape="-477.32,-140.67 -471.87,-136.27" rightOfWay="edgePriority"/>
    <junction id="23" type="dead_end" x="-618.38" y="36.63" incLanes="" intLanes="" shape="-616.98,37.68 -619.79,35.59" rightOfWay="edgePriority"/>
    <junction id="24" type="priority" x="-509.09" y="-98.59" incLanes="32058_0 31223_0 31223_1 30906_0 30966_0 30966_1" intLanes=":24_0_0 :24_1_0 :24_2_0 :24_3_0 :24_4_0 :24_5_0 :24_6_0 :24_7_0 :24_8_0 :24_9_0 :24_10_0 :24_11_0" shape="-495.31,-81.92 -490.67,-87.16 -494.08,-90.82 -496.20,-94.64 -497.03,-98.63 -496.57,-102.77 -494.83,-107.08 -491.80,-111.56 -499.98,-118.15 -503.75,-114.14 -507.50,-111.50 -511.23,-110.22 -514.94,-110.30 -518.63,-111.75 -522.31,-114.56 -527.14,-109.49 -523.93,-105.80 -521.94,-102.00 -521.17,-98.08 -521.61,-94.06 -523.27,-89.92 -526.14,-85.66 -517.98,-79.07 -514.35,-82.85 -510.66,-85.32 -506.92,-86.46 -503.11,-86.27 -499.24,-84.76">
        <request index="0" response="000000010000" foes="000100010000" cont="0"/>
        <request index="1" response="111000110000" foes="111100110000" cont="0"/>
        <request index="2" response="110011110000" foes="110011110000" cont="0"/>
        <request index="3" response="000000000000" foes="100010000000" cont="0"/>
        <request index="4" response="000000000000" foes="100110000111" cont="0"/>
        <request index="5" response="011000000000" foes="011110000110" cont="0"/>
        <request index="6" response="010000000000" foes="010000000100" cont="0"/>
        <request index="7" response="110000111000" foes="110000111100" cont="0"/>
        <request index="8" response="110000110011" foes="110000110011" cont="0"/>
        <request index="9" response="000000000000" foes="000000100010" cont="0"/>
        <request index="10" response="000000000000" foes="000111100110" cont="0"/>
        <request index="11" response="000000011000" foes="000110011110" cont="0"/>
    </junction>
    <junction id="25" type="priority" x="-545.90" y="-56.46" incLanes="31435_0" intLanes=":25_0_0 :25_0_1" shape="-540.53,-57.18 -545.89,-61.68 -547.52,-59.16 -548.31,-57.14 -548.91,-56.01 -549.94,-54.62 -547.26,-52.37 -544.92,-54.32 -542.86,-55.23 -541.77,-55.94">
        <request index="0" response="00" foes="00" cont="0"/>
        <request index="1" response="00" foes="00" cont="0"/>
    </junction>
    <junction id="26" type="priority" x="-598.19" y="16.28" incLanes="31436_0" intLanes=":26_0_0 :26_1_0" shape="-595.91,16.04 -598.81,14.09 -600.57,16.59 -597.52,18.51">
        <request index="0" response="00" foes="00" cont="0"/>
        <request index="1" response="00" foes="00" cont="0"/>
    </junction>
    <junction id="27" type="dead_end" x="-614.09" y="39.65" incLanes="35921_0 35922_0" intLanes="" shape="-614.09,39.65 -616.90,37.57 -611.21,41.64"/>

    <connection from="30906" to="31221" fromLane="0" toLane="0" contPos="-4.00" shape="-523.57,-113.34 -522.70,-112.58 -520.85,-111.15 -518.91,-109.95 -516.85,-109.01 -515.83,-108.69 -514.77,-108.44 -513.70,-108.29 -512.63,-108.24 -511.55,-108.30 -510.49,-108.46 -509.43,-108.72 -508.40,-109.07 -507.38,-109.51 -506.41,-110.01 -504.47,-111.26 -502.67,-112.72 -500.99,-114.34 -498.61,-117.05" via=":24_6_0" dir="r" state="m"/>
    <connection from="30906" to="32057" fromLane="0" toLane="0" contPos="-4.00" shape="-523.57,-113.34 -513.59,-104.53 -493.37,-87.21 -491.83,-85.85" via=":24_7_0" dir="s" state="m"/>
    <connection from="30906" to="30968" fromLane="0" toLane="0" contPos="-4.00" shape="-523.57,-113.34 -520.71,-110.52 -518.49,-107.90 -516.55,-105.06 -515.21,-102.53 -514.21,-99.85 -513.69,-97.62 -513.45,-95.34 -513.52,-93.05 -513.87,-90.79 -514.68,-88.05 -515.85,-85.43 -517.30,-82.96 -519.34,-80.16" via=":24_8_0" dir="l" state="m"/>
    <connection from="30966" to="30907" fromLane="0" toLane="0" contPos="-4.00" shape="-524.77,-84.57 -522.72,-87.39 -521.26,-89.90 -520.12,-92.58 -519.51,-94.82 -519.23,-97.13 -519.32,-99.45 -519.80,-101.72 -520.62,-103.89 -521.75,-105.93 -523.49,-108.25 -525.50,-110.36 -525.93,-110.76" via=":24_9_0" dir="r" state="M"/>
    <connection from="30966" to="31221" fromLane="0" toLane="0" contPos="-4.00" shape="-524.77,-84.57 -511.70,-100.80 -498.61,-117.05" via=":24_10_0" dir="s" state="M"/>
    <connection from="30966" to="32057" fromLane="1" toLane="0" contPos="-4.00" shape="-522.05,-82.37 -519.46,-85.32 -517.56,-87.12 -515.52,-88.74 -513.30,-90.14 -510.93,-91.22 -509.69,-91.62 -508.41,-91.92 -507.12,-92.10 -505.81,-92.17 -504.51,-92.12 -503.21,-91.95 -501.94,-91.68 -499.46,-90.85 -497.12,-89.69 -494.91,-88.29 -491.83,-85.85" via=":24_11_0" dir="l" state="m"/>
    <connection from="30968" to="33497" fromLane="0" toLane="0" contPos="-4.00" via=":20_0_0" dir="s" state="M"/>
    <connection from="31223" to="32057" fromLane="0" toLane="0" contPos="-4.00" shape="-493.18,-112.63 -495.22,-109.86 -496.68,-107.38 -497.84,-104.76 -498.49,-102.56 -498.84,-100.29 -498.83,-97.99 -498.45,-95.73 -497.71,-93.56 -496.67,-91.51 -495.02,-89.16 -493.10,-87.03 -491.83,-85.85" via=":24_3_0" dir="r" state="M"/>
    <connection from="31223" to="30968" fromLane="0" toLane="0" contPos="-4.00" shape="-493.18,-112.63 -506.25,-96.41 -519.34,-80.16" via=":24_4_0" dir="s" state="M"/>
    <connection from="31223" to="30907" fromLane="1" toLane="0" contPos="-4.00" shape="-495.90,-114.83 -498.59,-111.78 -500.55,-109.90 -502.66,-108.21 -504.94,-106.74 -506.15,-106.13 -507.40,-105.60 -508.69,-105.18 -510.00,-104.86 -511.35,-104.68 -512.70,-104.62 -514.05,-104.70 -515.39,-104.89 -516.71,-105.21 -518.00,-105.64 -520.46,-106.77 -522.76,-108.20 -524.90,-109.86 -525.93,-110.76" via=":24_5_0" dir="l" state="m"/>
    <connection from="31435" to="30966" fromLane="0" toLane="0" contPos="-4.00" shape="-555.43,-45.37 -551.33,-50.47 -541.20,-64.33 -537.72,-68.66" via=":25_0_0" dir="s" state="M"/>
    <connection from="31435" to="30966" fromLane="0" toLane="1" contPos="-4.00" shape="-555.43,-45.37 -551.13,-50.07 -544.38,-56.70 -538.49,-62.58 -535.03,-66.42" via=":25_0_1" dir="s" state="M"/>
    <connection from="31436" to="35922" fromLane="0" toLane="0" contPos="-4.00" via=":26_0_0" dir="s" state="M"/>
    <connection from="31436" to="35921" fromLane="0" toLane="0" contPos="-4.00" via=":26_1_0" dir="s" state="M"/>
    <connection from="32058" to="30968" fromLane="0" toLane="0" contPos="-4.00" shape="-494.15,-83.22 -496.83,-85.35 -498.69,-86.53 -500.65,-87.49 -502.72,-88.18 -503.72,-88.39 -504.76,-88.52 -505.80,-88.55 -506.84,-88.49 -507.87,-88.34 -508.89,-88.10 -509.87,-87.78 -511.84,-86.87 -513.69,-85.70 -515.43,-84.31 -517.05,-82.76 -519.34,-80.16" via=":24_0_0" dir="r" state="m"/>
    <connection from="32058" to="30907" fromLane="0" toLane="0" contPos="-4.00" shape="-494.15,-83.22 -495.69,-84.58 -515.91,-101.91 -525.93,-110.76" via=":24_1_0" dir="s" state="m"/>
    <connection from="32058" to="31221" fromLane="0" toLane="0" contPos="-4.00" shape="-494.15,-83.22 -497.08,-86.04 -499.35,-88.64 -501.36,-91.47 -502.74,-94.00 -503.81,-96.68 -504.37,-98.92 -504.65,-101.21 -504.63,-103.52 -504.32,-105.81 -503.54,-108.58 -502.41,-111.24 -500.99,-113.75 -498.99,-116.58 -498.61,-117.05" via=":24_2_0" dir="l" state="m"/>
    <connection from="33497" to="31436" fromLane="0" toLane="0" contPos="-4.00" via=":16_0_0" dir="s" state="M"/>
    <connection from="35325" to="31435" fromLane="0" toLane="0" contPos="-4.00" via=":14_0_0" dir="s" state="M"/>

    <connection from=":14_0" to="31435" fromLane="0" toLane="0" dir="s" state="M"/>
    <connection from=":16_0" to="31436" fromLane="0" toLane="0" dir="s" state="M"/>
    <connection from=":20_0" to="33497" fromLane="0" toLane="0" dir="s" state="M"/>
    <connection from=":24_0" to="30968" fromLane="0" toLane="0" dir="r" state="M"/>
    <connection from=":24_1" to="30907" fromLane="0" toLane="0" dir="s" state="M"/>
    <connection from=":24_2" to="31221" fromLane="0" toLane="0" dir="l" state="M"/>
    <connection from=":24_3" to="32057" fromLane="0" toLane="0" dir="r" state="M"/>
    <connection from=":24_4" to="30968" fromLane="0" toLane="0" dir="s" state="M"/>
    <connection from=":24_5" to="30907" fromLane="0" toLane="0" dir="l" state="M"/>
    <connection from=":24_6" to="31221" fromLane="0" toLane="0" dir="r" state="M"/>
    <connection from=":24_7" to="32057" fromLane="0" toLane="0" dir="s" state="M"/>
    <connection from=":24_8" to="30968" fromLane="0" toLane="0" dir="l" state="M"/>
    <connection from=":24_9" to="30907" fromLane="0" toLane="0" dir="r" state="M"/>
    <connection from=":24_10" to="31221" fromLane="0" toLane="0" dir="s" state="M"/>
    <connection from=":24_11" to="32057" fromLane="0" toLane="0" dir="l" state="M"/>
    <connection from=":25_0" to="30966" fromLane="0" toLane="0" dir="s" state="M"/>
    <connection from=":25_0" to="30966" fromLane="1" toLane="1" dir="s" state="M"/>
    <connection from=":26_0" to="35922" fromLane="0" toLane="0" dir="s" state="M"/>
    <connection from=":26_1" to="35921" fromLane="0" toLane="0" dir="s" state="M"/>

</net>