<routes>
	<vehicle depart="0.1" departLane="0" departPos="4.288525888514657" departSpeed="0.41083633" id="312" type="bicycle">
		<route edges="30966 31221"/>
	</vehicle>
	<vehicle depart="0.1" departLane="1" departPos="25.14455908102151" departSpeed="1.5539953" id="335" type="bicycle">
		<route edges="31223 30907"/>
	</vehicle>
	<vehicle depart="0.1" departLane="0" departPos="8.34142230267574" departSpeed="0.59609396" id="34" type="passenger">
		<route edges=":24_5 30907"/>
	</vehicle>
	<vehicle depart="0.1" departLane="1" departPos="2.5" departSpeed="1.5329296" id="36" type="passenger">
		<route edges="31223 30907"/>
	</vehicle>
	<vehicle depart="0.1" departLane="1" departPos="20.46701821394033" departSpeed="0.0" id="316" type="passenger">
		<route edges="30966 32057"/>
	</vehicle>
	<vehicle depart="0.1" departLane="1" departPos="12.95835130784609" departSpeed="0.0" id="317" type="passenger">
		<route edges="30966 32057"/>
	</vehicle>
	<vehicle depart="0.1" departLane="0" departPos="11.181455328827754" departSpeed="11.840325" id="351" type="passenger">
		<route edges=":24_3 32057"/>
	</vehicle>
	<vehicle depart="0.1" departLane="0" departPos="29.194854869188497" departSpeed="8.3590332" id="353" type="passenger">
		<route edges="31223 30968"/>
	</vehicle>
	<vehicle depart="0.1" departLane="0" departPos="5.317570934851625" departSpeed="3.6933054" id="355" type="passenger">
		<route edges="31223 32057"/>
	</vehicle>
	<vehicle depart="0.1" departLane="0" departPos="69.96438720821129" departSpeed="0.0" id="37" type="truck">
		<route edges="30906 31221"/>
	</vehicle>
</routes>
