<routes>
	<vehicle depart="0.1" departLane="0" departPos="36.754768408287916" departSpeed="0.0" id="38" type="bicycle">
		<route edges="145 10"/>
	</vehicle>
	<vehicle depart="0.1" departLane="0" departPos="34.37644547216351" departSpeed="13.268455" id="31" type="passenger">
		<route edges="142 383 7"/>
	</vehicle>
	<vehicle depart="0.1" departLane="0" departPos="10.055506074834813" departSpeed="5.9446156" id="32" type="passenger">
		<route edges=":51_0 67 64 61 146"/>
	</vehicle>
	<vehicle depart="0.1" departLane="0" departPos="17.20581302115518" departSpeed="0.0" id="35" type="passenger">
		<route edges="7 65"/>
	</vehicle>
	<vehicle depart="0.1" departLane="0" departPos="68.91531816118477" departSpeed="5.335619" id="39" type="passenger">
		<route edges="164 67 160"/>
	</vehicle>
	<vehicle depart="0.1" departLane="0" departPos="55.48209232011485" departSpeed="12.982947" id="316" type="passenger">
		<route edges="142 383 7"/>
	</vehicle>
	<vehicle depart="0.1" departLane="0" departPos="42.14075725436143" departSpeed="0.0" id="321" type="passenger">
		<route edges="145 10"/>
	</vehicle>
	<vehicle depart="0.1" departLane="0" departPos="13.366504794498066" departSpeed="9.6693327" id="326" type="passenger">
		<route edges=":50_1 64 61 146"/>
	</vehicle>
	<vehicle depart="0.1" departLane="0" departPos="31.154065592230882" departSpeed="0.0" id="328" type="passenger">
		<route edges="145 10"/>
	</vehicle>
	<vehicle depart="0.1" departLane="0" departPos="57.966262973209595" departSpeed="4.5610094" id="332" type="passenger">
		<route edges="164 67 64 61"/>
	</vehicle>
	<vehicle depart="0.1" departLane="0" departPos="53.22809554513959" departSpeed="16.53697" id="334" type="passenger">
		<route edges="61 146"/>
	</vehicle>
	<vehicle depart="0.1" departLane="0" departPos="7.298592536124414" departSpeed="4.8880252" id="335" type="passenger">
		<route edges=":49_11 142 383"/>
	</vehicle>
	<vehicle depart="0.1" departLane="0" departPos="67.51747903422711" departSpeed="3.8172447" id="337" type="passenger">
		<route edges="11 62 8"/>
	</vehicle>
	<vehicle depart="0.1" departLane="0" departPos="48.023959694596506" departSpeed="3.6104022" id="338" type="passenger">
		<route edges="164 67 64"/>
	</vehicle>
	<vehicle depart="0.1" departLane="0" departPos="19.769322390362085" departSpeed="1.0384011e-05" id="340" type="passenger">
		<route edges="145 10"/>
	</vehicle>
	<vehicle depart="0.1" departLane="0" departPos="58.30299785490647" departSpeed="2.4261682" id="342" type="passenger">
		<route edges="11 146"/>
	</vehicle>
	<vehicle depart="0.1" departLane="0" departPos="38.98376769664658" departSpeed="2.7227701" id="343" type="passenger">
		<route edges="164 71"/>
	</vehicle>
	<vehicle depart="0.1" departLane="0" departPos="12.735758031029778" departSpeed="8.3745499e-05" id="346" type="passenger">
		<route edges="145 10"/>
	</vehicle>
	<vehicle depart="0.1" departLane="0" departPos="49.857501044093915" departSpeed="1.3830921" id="347" type="passenger">
		<route edges="11 62 8"/>
	</vehicle>
	<vehicle depart="0.1" departLane="0" departPos="30.663994089784634" departSpeed="1.8124839" id="348" type="passenger">
		<route edges="164 71"/>
	</vehicle>
	<vehicle depart="0.1" departLane="0" departPos="14.78183691012554" departSpeed="0.024492223" id="349" type="passenger">
		<route edges="161 68"/>
	</vehicle>
	<vehicle depart="0.1" departLane="0" departPos="42.059661625394945" departSpeed="0.67986806" id="350" type="passenger">
		<route edges="11 146"/>
	</vehicle>
	<vehicle depart="0.1" departLane="0" departPos="34.936658851672554" departSpeed="0.29359702" id="354" type="passenger">
		<route edges="11 62 8"/>
	</vehicle>
	<vehicle depart="0.1" departLane="0" departPos="27.913856280030455" departSpeed="0.24230362" id="355" type="passenger">
		<route edges="11 62"/>
	</vehicle>
	<vehicle depart="0.1" departLane="0" departPos="5.7375168695714756" departSpeed="0.00039076079" id="357" type="passenger">
		<route edges="145 10"/>
	</vehicle>
	<vehicle depart="0.1" departLane="0" departPos="20.301827225209493" departSpeed="0.46448043" id="359" type="passenger">
		<route edges="11 142"/>
	</vehicle>
	<vehicle depart="0.1" departLane="0" departPos="12.032109288968105" departSpeed="0.76354406" id="360" type="passenger">
		<route edges="11 142"/>
	</vehicle>
	<vehicle depart="0.1" departLane="0" departPos="35.397307977628245" departSpeed="0.0" id="33" type="motorcycle">
		<route edges="145 10"/>
	</vehicle>
	<vehicle depart="0.1" departLane="0" departPos="24.243465426582308" departSpeed="0.0" id="333" type="motorcycle">
		<route edges="145 10"/>
	</vehicle>
	<vehicle depart="0.1" departLane="0" departPos="76.50784525596715" departSpeed="13.595008" id="324" type="truck">
		<route edges="142 383 7 65"/>
	</vehicle>
	<vehicle depart="0.1" departLane="0" departPos="24.203102326720845" departSpeed="0.0" id="341" type="truck">
		<route edges="161 68"/>
	</vehicle>
</routes>
