<!-- generated on Tue Feb  9 22:12:13 2021 by Eclipse SUMO netconvert Version 1.8.0
<configuration xmlns:xsi="http://www.w3.org/2001/XMLSchema-instance" xsi:noNamespaceSchemaLocation="http://sumo.dlr.de/xsd/netconvertConfiguration.xsd">

    <input>
        <node-files value="./converted_scenarios/scenario-factory/DEU_Guetersloh-15_1_I-1-1/DEU_Guetersloh-15_1_I-1-1.nod.xml"/>
        <edge-files value="./converted_scenarios/scenario-factory/DEU_Guetersloh-15_1_I-1-1/DEU_Guetersloh-15_1_I-1-1.edg.xml"/>
        <connection-files value="./converted_scenarios/scenario-factory/DEU_Guetersloh-15_1_I-1-1/DEU_Guetersloh-15_1_I-1-1.con.xml"/>
        <tllogic-files value="./converted_scenarios/scenario-factory/DEU_Guetersloh-15_1_I-1-1/DEU_Guetersloh-15_1_I-1-1.tll.xml"/>
        <type-files value="/home/zen/commonroad-interactive-benchmarks/install/commonroad-map-tool/crmapconverter/sumo_map/templates/DEU.typ.xml"/>
    </input>

    <output>
        <output-file value="./converted_scenarios/scenario-factory/DEU_Guetersloh-15_1_I-1-1/DEU_Guetersloh-15_1_I-1-1.net.xml"/>
    </output>

    <processing>
        <geometry.remove.keep-edges.explicit value="true"/>
        <geometry.avoid-overlap value="true"/>
        <offset.disable-normalization value="true"/>
    </processing>

    <junctions>
        <no-turnarounds value="true"/>
        <junctions.internal-link-detail value="20"/>
    </junctions>

    <report>
        <aggregate-warnings value="5"/>
    </report>

    <random_number>
        <seed value="1234"/>
    </random_number>

</configuration>
--><net xmlns:xsi="http://www.w3.org/2001/XMLSchema-instance" version="1.6" junctionCornerDetail="5" junctionLinkDetail="20" limitTurnSpeed="5.50" xsi:noNamespaceSchemaLocation="http://sumo.dlr.de/xsd/net_file.xsd">

    <location netOffset="0.00,0.00" convBoundary="751.64,242.46,844.55,408.61" origBoundary="751.64,242.46,846.30,408.71" projParameter="!"/>

    <type id="highway.bridleway" priority="1" speed="2.78" allow="pedestrian" oneway="1" width="2.00"/>
    <type id="highway.bus_guideway" priority="1" speed="27.78" allow="bus" oneway="1"/>
    <type id="highway.cycleway" priority="1" speed="8.33" allow="bicycle" oneway="0" width="1.00"/>
    <type id="highway.footway" priority="1" speed="2.78" allow="pedestrian" oneway="1" width="2.00"/>
    <type id="highway.ford" priority="1" speed="2.78" allow="army" oneway="0"/>
    <type id="highway.living_street" priority="2" speed="2.78" disallow="tram rail_urban rail rail_electric rail_fast ship" oneway="0"/>
    <type id="highway.motorway" priority="14" speed="39.44" allow="private emergency authority army vip passenger hov taxi bus coach delivery truck trailer motorcycle evehicle custom1 custom2" oneway="1"/>
    <type id="highway.motorway_link" priority="9" speed="22.22" allow="private emergency authority army vip passenger hov taxi bus coach delivery truck trailer motorcycle evehicle custom1 custom2" oneway="1"/>
    <type id="highway.path" priority="1" speed="2.78" allow="pedestrian bicycle" oneway="0" width="2.00"/>
    <type id="highway.pedestrian" priority="1" speed="2.78" allow="pedestrian" oneway="1" width="2.00"/>
    <type id="highway.primary" priority="12" speed="27.78" disallow="pedestrian tram rail_urban rail rail_electric rail_fast ship" oneway="0"/>
    <type id="highway.primary_link" priority="7" speed="22.22" disallow="pedestrian tram rail_urban rail rail_electric rail_fast ship" oneway="0"/>
    <type id="highway.raceway" priority="15" speed="83.33" allow="vip" oneway="0"/>
    <type id="highway.residential" priority="3" speed="13.89" disallow="pedestrian tram rail_urban rail rail_electric rail_fast ship" oneway="0"/>
    <type id="highway.secondary" priority="11" speed="27.78" disallow="pedestrian tram rail_urban rail rail_electric rail_fast ship" oneway="0"/>
    <type id="highway.secondary_link" priority="6" speed="22.22" disallow="pedestrian tram rail_urban rail rail_electric rail_fast ship" oneway="0"/>
    <type id="highway.service" priority="1" speed="5.56" allow="pedestrian delivery bicycle" oneway="0"/>
    <type id="highway.stairs" priority="1" speed="1.39" allow="pedestrian" oneway="1" width="2.00"/>
    <type id="highway.step" priority="1" speed="1.39" allow="pedestrian" oneway="1" width="2.00"/>
    <type id="highway.steps" priority="1" speed="1.39" allow="pedestrian" oneway="1" width="2.00"/>
    <type id="highway.tertiary" priority="10" speed="22.22" disallow="pedestrian tram rail_urban rail rail_electric rail_fast ship" oneway="0"/>
    <type id="highway.tertiary_link" priority="5" speed="22.22" disallow="pedestrian tram rail_urban rail rail_electric rail_fast ship" oneway="0"/>
    <type id="highway.track" priority="1" speed="5.56" allow="pedestrian motorcycle moped bicycle" oneway="0"/>
    <type id="highway.trunk" priority="13" speed="27.78" disallow="pedestrian bicycle tram rail_urban rail rail_electric rail_fast ship" oneway="0"/>
    <type id="highway.trunk_link" priority="8" speed="22.22" disallow="pedestrian bicycle tram rail_urban rail rail_electric rail_fast ship" oneway="0"/>
    <type id="highway.unclassified" priority="4" speed="13.89" disallow="pedestrian tram rail_urban rail rail_electric rail_fast ship" oneway="0"/>
    <type id="highway.unsurfaced" priority="1" speed="8.33" disallow="tram rail_urban rail rail_electric rail_fast ship" oneway="0"/>
    <type id="railway.highspeed" priority="21" speed="69.44" allow="rail_fast" oneway="1"/>
    <type id="railway.light_rail" priority="19" speed="27.78" allow="rail_urban" oneway="1"/>
    <type id="railway.preserved" priority="16" speed="27.78" allow="rail" oneway="1"/>
    <type id="railway.rail" priority="20" speed="44.44" allow="rail" oneway="1"/>
    <type id="railway.subway" priority="18" speed="27.78" allow="rail_urban" oneway="1"/>
    <type id="railway.tram" priority="17" speed="13.89" allow="tram" oneway="1"/>

    <edge id=":12_0" function="internal">
        <lane id=":12_0_0" index="0" disallow="pedestrian tram rail_urban rail rail_electric rail_fast ship" speed="36.11" length="3.00" width="3.50" shape="839.30,385.46 839.32,382.46"/>
    </edge>
    <edge id=":15_0" function="internal">
        <lane id=":15_0_0" index="0" disallow="pedestrian tram rail_urban rail rail_electric rail_fast ship" speed="11.45" length="30.35" width="3.50" shape="841.25,351.58 841.09,348.33 840.75,346.19 840.18,344.10 839.34,342.10 838.82,341.15 838.22,340.25 837.54,339.40 836.80,338.61 835.99,337.88 835.13,337.23 833.27,336.12 831.27,335.27 829.19,334.66 827.06,334.25 823.83,333.93 821.66,333.89"/>
    </edge>
    <edge id=":15_1" function="internal">
        <lane id=":15_1_0" index="0" disallow="pedestrian tram rail_urban rail rail_electric rail_fast ship" speed="36.11" length="40.75" width="3.50" shape="841.25,351.58 841.15,343.43 840.69,335.30 839.96,328.21 838.91,321.17 837.50,314.18 836.78,311.19"/>
    </edge>
    <edge id=":15_2" function="internal">
        <lane id=":15_2_0" index="0" disallow="pedestrian tram rail_urban rail rail_electric rail_fast ship" speed="36.11" length="41.64" width="3.50" shape="840.16,310.28 840.91,313.40 842.35,320.54 843.43,327.75 844.17,335.00 844.64,343.30 844.75,351.56"/>
    </edge>
    <edge id=":15_3" function="internal">
        <lane id=":15_3_0" index="0" disallow="pedestrian tram rail_urban rail rail_electric rail_fast ship" speed="36.11" length="41.64" width="3.50" shape="840.16,310.28 840.91,313.40 842.35,320.54 843.43,327.75 844.17,335.00 844.64,343.30 844.75,351.56"/>
    </edge>
    <edge id=":15_4" function="internal">
        <lane id=":15_4_0" index="0" disallow="pedestrian tram rail_urban rail rail_electric rail_fast ship" speed="11.59" length="36.83" width="3.50" shape="840.16,310.28 841.02,314.50 841.30,317.32 841.28,320.14 841.13,321.55 840.86,322.94 840.47,324.30 839.94,325.61 839.27,326.85 838.45,328.01 837.51,329.05 836.44,329.99 835.28,330.80 834.05,331.49 832.76,332.07 830.07,332.94 827.30,333.49 824.49,333.78 821.66,333.89"/>
    </edge>
    <edge id=":15_5" function="internal">
        <lane id=":15_5_0" index="0" disallow="pedestrian tram rail_urban rail rail_electric rail_fast ship" speed="10.54" length="30.22" width="3.50" shape="821.64,330.39 824.09,330.30 826.51,330.04 828.85,329.58 831.10,328.86 832.12,328.40 833.10,327.85 834.00,327.22 834.82,326.51 835.54,325.71 836.16,324.84 836.68,323.89 837.09,322.87 837.40,321.80 837.61,320.69 837.74,319.57 837.75,317.19 837.51,314.82 836.78,311.19"/>
    </edge>
    <edge id=":15_6" function="internal">
        <lane id=":15_6_0" index="0" disallow="pedestrian tram rail_urban rail rail_electric rail_fast ship" speed="12.42" length="35.94" width="3.50" shape="821.64,330.39 824.13,330.44 827.82,330.81 830.31,331.30 832.76,332.03 835.14,333.06 837.36,334.40 838.44,335.23 839.42,336.13 840.32,337.11 841.14,338.16 841.87,339.27 842.52,340.45 843.50,342.84 844.17,345.33 844.57,347.86 844.75,351.56"/>
    </edge>
    <edge id=":15_7" function="internal">
        <lane id=":15_7_0" index="0" disallow="pedestrian tram rail_urban rail rail_electric rail_fast ship" speed="12.42" length="35.94" width="3.50" shape="821.64,330.39 824.13,330.44 827.82,330.81 830.31,331.30 832.76,332.03 835.14,333.06 837.36,334.40 838.44,335.23 839.42,336.13 840.32,337.11 841.14,338.16 841.87,339.27 842.52,340.45 843.50,342.84 844.17,345.33 844.57,347.86 844.75,351.56"/>
    </edge>
    <edge id=":9_0" function="internal">
        <lane id=":9_0_0" index="0" disallow="pedestrian tram rail_urban rail rail_electric rail_fast ship" speed="36.11" length="3.30" width="3.50" shape="842.83,382.17 842.80,385.47"/>
    </edge>
    <edge id=":9_1" function="internal">
        <lane id=":9_1_0" index="0" disallow="pedestrian tram rail_urban rail rail_electric rail_fast ship" speed="36.11" length="3.15" width="3.50" shape="846.26,382.31 846.30,385.46"/>
    </edge>

    <edge id="66982" from="12" to="15" priority="3" type="highway.residential" spreadType="center" length="31.00" shape="839.30,383.96 832.63,331.65">
        <lane id="66982_0" index="0" disallow="pedestrian tram rail_urban rail rail_electric rail_fast ship" speed="36.11" length="31.00" width="3.50" customShape="1" shape="839.32,382.46 839.56,376.55 840.97,360.99 841.22,354.82 841.24,353.21 841.25,351.53"/>
    </edge>
    <edge id="66984" from="11" to="15" priority="3" type="highway.residential" spreadType="center" length="69.99" shape="823.26,242.46 836.11,331.27">
        <lane id="66984_0" index="0" disallow="pedestrian tram rail_urban rail rail_electric rail_fast ship" speed="36.11" length="69.99" width="3.50" customShape="1" shape="823.26,242.46 824.32,248.43 826.61,259.18 829.72,271.79 835.65,293.46 840.17,310.35"/>
    </edge>
    <edge id="66985" from="15" to="6" priority="3" type="highway.residential" spreadType="center" length="70.01" shape="832.65,331.78 819.86,243.29">
        <lane id="66985_0" index="0" disallow="pedestrian tram rail_urban rail rail_electric rail_fast ship" speed="36.11" length="70.01" width="3.50" customShape="1" shape="836.78,311.19 832.23,294.24 826.26,272.40 823.13,259.65 820.82,248.78 819.86,243.29"/>
    </edge>
    <edge id="67243" from="8" to="15" priority="3" type="highway.residential" spreadType="center" length="70.00" shape="751.64,330.79 834.39,329.74">
        <lane id="67243_0" index="0" disallow="pedestrian tram rail_urban rail rail_electric rail_fast ship" speed="36.11" length="70.00" width="3.50" customShape="1" shape="751.64,330.79 771.37,330.68 821.64,330.39"/>
    </edge>
    <edge id="67244" from="15" to="3" priority="3" type="highway.residential" spreadType="center" length="70.00" shape="834.43,333.24 751.66,334.29">
        <lane id="67244_0" index="0" disallow="pedestrian tram rail_urban rail rail_electric rail_fast ship" speed="36.11" length="70.00" width="3.50" customShape="1" shape="821.66,333.89 771.39,334.18 751.66,334.29"/>
    </edge>
    <edge id="68178" from="13" to="12" priority="3" type="highway.residential" spreadType="center" length="22.82">
        <lane id="68178_0" index="0" disallow="pedestrian tram rail_urban rail rail_electric rail_fast ship" speed="36.11" length="22.82" width="3.50" customShape="1" shape="838.88,408.27 838.91,407.76 839.26,398.65 839.30,385.46"/>
    </edge>
    <edge id="68180" from="9" to="10" priority="3" type="highway.residential" spreadType="center" length="23.06">
        <lane id="68180_0" index="0" disallow="pedestrian tram rail_urban rail rail_electric rail_fast ship" speed="36.11" length="23.27" width="3.50" acceleration="1" customShape="1" shape="846.30,385.46 846.26,398.91 845.90,408.19 845.87,408.72"/>
        <lane id="68180_1" index="1" disallow="pedestrian tram rail_urban rail rail_electric rail_fast ship" speed="36.11" length="23.06" width="3.50" customShape="1" shape="842.80,385.47 842.76,398.75 842.41,407.96 842.37,408.52"/>
    </edge>
    <edge id="73577" from="15" to="9" priority="3" type="highway.residential" spreadType="center" length="30.68" shape="836.09,331.16 844.55,383.94">
        <lane id="73577_0" index="0" disallow="pedestrian tram rail_urban rail rail_electric rail_fast ship" speed="36.11" length="30.68" width="3.50" customShape="1" shape="844.75,351.56 844.74,353.24 844.72,354.86 844.47,361.11 843.06,376.66 842.83,382.17"/>
    </edge>
    <edge id="73581" from="15" to="9" priority="3" type="highway.residential" spreadType="center" length="30.80">
        <lane id="73581_0" index="0" disallow="pedestrian tram rail_urban rail rail_electric rail_fast ship" speed="36.11" length="30.80" width="3.50" customShape="1" shape="844.75,351.56 844.74,353.24 844.72,354.86 844.86,361.00 845.65,371.69 846.22,380.35 846.26,382.31"/>
    </edge>

    <junction id="10" type="dead_end" x="844.12" y="408.61" incLanes="68180_0 68180_1" intLanes="" shape="847.61,408.83 840.63,408.40" rightOfWay="edgePriority"/>
    <junction id="11" type="dead_end" x="823.26" y="242.46" incLanes="" intLanes="" shape="821.54,242.76 824.99,242.15" rightOfWay="edgePriority"/>
    <junction id="12" type="priority" x="839.30" y="383.96" incLanes="68178_0" intLanes=":12_0_0" shape="841.07,382.46 837.57,382.46 837.55,385.45 841.05,385.46" rightOfWay="edgePriority">
        <request index="0" response="0" foes="0" cont="0"/>
    </junction>
    <junction id="13" type="dead_end" x="838.88" y="408.27" incLanes="" intLanes="" shape="840.63,408.38 837.13,408.16" rightOfWay="edgePriority"/>
    <junction id="15" type="priority" x="834.37" y="331.49" incLanes="66982_0 66984_0 67243_0" intLanes=":15_0_0 :15_1_0 :15_2_0 :15_3_0 :15_4_0 :15_5_0 :15_6_0 :15_7_0" shape="839.50,351.52 846.50,351.57 846.59,342.60 846.57,335.92 846.27,330.43 845.50,325.00 844.09,318.51 841.84,309.83 835.08,311.64 835.97,316.81 835.60,321.04 833.99,324.34 831.12,326.70 827.00,328.14 821.63,328.64 821.67,335.64 827.15,336.05 831.63,337.35 835.11,339.55 837.58,342.65 839.04,346.64">
        <request index="0" response="00000000" foes="00010000" cont="0"/>
        <request index="1" response="00000000" foes="11110000" cont="0"/>
        <request index="2" response="00000000" foes="11000000" cont="0"/>
        <request index="3" response="00000000" foes="10000000" cont="0"/>
        <request index="4" response="00000011" foes="11000011" cont="0"/>
        <request index="5" response="00000010" foes="00000010" cont="0"/>
        <request index="6" response="00010110" foes="00010110" cont="0"/>
        <request index="7" response="00011110" foes="00011110" cont="0"/>
    </junction>
    <junction id="3" type="dead_end" x="751.66" y="334.29" incLanes="67244_0" intLanes="" shape="751.67,336.04 751.65,332.54" rightOfWay="edgePriority"/>
    <junction id="6" type="dead_end" x="819.86" y="243.29" incLanes="66985_0" intLanes="" shape="818.14,243.59 821.58,242.99" rightOfWay="edgePriority"/>
    <junction id="8" type="dead_end" x="751.64" y="330.79" incLanes="" intLanes="" shape="751.65,332.54 751.63,329.04" rightOfWay="edgePriority"/>
    <junction id="9" type="priority" x="844.55" y="383.94" incLanes="73577_0 73581_0" intLanes=":9_0_0 :9_1_0" shape="848.01,382.38 841.08,382.09 841.05,385.47 848.05,385.47" rightOfWay="edgePriority">
        <request index="0" response="00" foes="00" cont="0"/>
        <request index="1" response="00" foes="00" cont="0"/>
    </junction>

    <connection from="66982" to="67244" fromLane="0" toLane="0" contPos="-4.00" shape="841.25,351.58 841.09,348.33 840.75,346.19 840.18,344.10 839.34,342.10 838.82,341.15 838.22,340.25 837.54,339.40 836.80,338.61 835.99,337.88 835.13,337.23 833.27,336.12 831.27,335.27 829.19,334.66 827.06,334.25 823.83,333.93 821.66,333.89" via=":15_0_0" dir="r" state="M"/>
    <connection from="66982" to="66985" fromLane="0" toLane="0" contPos="-4.00" shape="841.25,351.58 841.15,343.43 840.69,335.30 839.96,328.21 838.91,321.17 837.50,314.18 836.78,311.19" via=":15_1_0" dir="s" state="M"/>
    <connection from="66984" to="73577" fromLane="0" toLane="0" contPos="-4.00" shape="840.17,310.35 840.91,313.40 842.35,320.54 843.43,327.75 844.17,335.00 844.64,343.30 844.75,351.56" via=":15_2_0" dir="s" state="M"/>
    <connection from="66984" to="73581" fromLane="0" toLane="0" contPos="-4.00" shape="840.17,310.35 840.91,313.40 842.35,320.54 843.43,327.75 844.17,335.00 844.64,343.30 844.75,351.56" via=":15_3_0" dir="s" state="M"/>
    <connection from="66984" to="67244" fromLane="0" toLane="0" contPos="-4.00" shape="840.17,310.35 841.02,314.50 841.30,317.32 841.28,320.14 841.13,321.55 840.86,322.94 840.47,324.30 839.94,325.61 839.27,326.85 838.45,328.01 837.51,329.05 836.44,329.99 835.28,330.80 834.05,331.49 832.76,332.07 830.07,332.94 827.30,333.49 824.49,333.78 821.66,333.89" via=":15_4_0" dir="l" state="m"/>
    <connection from="67243" to="66985" fromLane="0" toLane="0" contPos="-4.00" shape="821.64,330.39 824.09,330.30 826.51,330.04 828.85,329.58 831.10,328.86 832.12,328.40 833.10,327.85 834.00,327.22 834.82,326.51 835.54,325.71 836.16,324.84 836.68,323.89 837.09,322.87 837.40,321.80 837.61,320.69 837.74,319.57 837.75,317.19 837.51,314.82 836.78,311.19" via=":15_5_0" dir="r" state="m"/>
    <connection from="67243" to="73577" fromLane="0" toLane="0" contPos="-4.00" shape="821.64,330.39 824.13,330.44 827.82,330.81 830.31,331.30 832.76,332.03 835.14,333.06 837.36,334.40 838.44,335.23 839.42,336.13 840.32,337.11 841.14,338.16 841.87,339.27 842.52,340.45 843.50,342.84 844.17,345.33 844.57,347.86 844.75,351.56" via=":15_6_0" dir="l" state="m"/>
    <connection from="67243" to="73581" fromLane="0" toLane="0" contPos="-4.00" shape="821.64,330.39 824.13,330.44 827.82,330.81 830.31,331.30 832.76,332.03 835.14,333.06 837.36,334.40 838.44,335.23 839.42,336.13 840.32,337.11 841.14,338.16 841.87,339.27 842.52,340.45 843.50,342.84 844.17,345.33 844.57,347.86 844.75,351.56" via=":15_7_0" dir="L" state="m"/>
    <connection from="68178" to="66982" fromLane="0" toLane="0" contPos="-4.00" via=":12_0_0" dir="s" state="M"/>
    <connection from="73577" to="68180" fromLane="0" toLane="1" contPos="-4.00" via=":9_0_0" dir="s" state="M"/>
    <connection from="73581" to="68180" fromLane="0" toLane="0" contPos="-4.00" via=":9_1_0" dir="s" state="M"/>

    <connection from=":12_0" to="66982" fromLane="0" toLane="0" dir="s" state="M"/>
    <connection from=":15_0" to="67244" fromLane="0" toLane="0" dir="r" state="M"/>
    <connection from=":15_1" to="66985" fromLane="0" toLane="0" dir="s" state="M"/>
    <connection from=":15_2" to="73577" fromLane="0" toLane="0" dir="s" state="M"/>
    <connection from=":15_3" to="73581" fromLane="0" toLane="0" dir="s" state="M"/>
    <connection from=":15_4" to="67244" fromLane="0" toLane="0" dir="l" state="M"/>
    <connection from=":15_5" to="66985" fromLane="0" toLane="0" dir="r" state="M"/>
    <connection from=":15_6" to="73577" fromLane="0" toLane="0" dir="l" state="M"/>
    <connection from=":15_7" to="73581" fromLane="0" toLane="0" dir="L" state="M"/>
    <connection from=":9_0" to="68180" fromLane="0" toLane="1" dir="s" state="M"/>
    <connection from=":9_1" to="68180" fromLane="0" toLane="0" dir="s" state="M"/>

</net>