<routes>
	<vehicle depart="0.1" departLane="0" departPos="64.05870639267125" departSpeed="0.38626473" id="32" type="passenger">
		<route edges="67243 73577"/>
	</vehicle>
	<vehicle depart="0.1" departLane="0" departPos="6.071676965089462" departSpeed="2.3214757" id="37" type="passenger">
		<route edges=":15_4 67244"/>
	</vehicle>
	<vehicle depart="0.1" departLane="0" departPos="67.54175736037813" departSpeed="1.5082231" id="38" type="passenger">
		<route edges="66984 73577"/>
	</vehicle>
	<vehicle depart="0.1" departLane="0" departPos="56.51872477172277" departSpeed="0.32198443" id="39" type="passenger">
		<route edges="66984 67244"/>
	</vehicle>
	<vehicle depart="0.1" departLane="0" departPos="46.65925227294274" departSpeed="0.13239504" id="311" type="passenger">
		<route edges="66984 67244"/>
	</vehicle>
	<vehicle depart="0.1" departLane="0" departPos="33.402503649589505" departSpeed="16.01891" id="334" type="passenger">
		<route edges=":15_1 66985"/>
	</vehicle>
	<vehicle depart="0.1" departLane="0" departPos="6.36773603322205" departSpeed="13.911206" id="335" type="passenger">
		<route edges=":15_0 67244"/>
	</vehicle>
	<vehicle depart="0.1" departLane="0" departPos="14.72563746428303" departSpeed="5.5166014" id="337" type="passenger">
		<route edges="68178 66982 66985"/>
	</vehicle>
	<vehicle depart="0.1" departLane="0" departPos="4.724460494642335" departSpeed="2.6194199" id="338" type="passenger">
		<route edges="68178 66982"/>
	</vehicle>
</routes>
