<!-- generated on Tue Feb  9 22:16:29 2021 by Eclipse SUMO netconvert Version 1.8.0
<configuration xmlns:xsi="http://www.w3.org/2001/XMLSchema-instance" xsi:noNamespaceSchemaLocation="http://sumo.dlr.de/xsd/netconvertConfiguration.xsd">

    <input>
        <node-files value="./converted_scenarios/scenario-factory/ESP_SantBoideLlobregat-11_2_I-1-1/ESP_SantBoideLlobregat-11_2_I-1-1.nod.xml"/>
        <edge-files value="./converted_scenarios/scenario-factory/ESP_SantBoideLlobregat-11_2_I-1-1/ESP_SantBoideLlobregat-11_2_I-1-1.edg.xml"/>
        <connection-files value="./converted_scenarios/scenario-factory/ESP_SantBoideLlobregat-11_2_I-1-1/ESP_SantBoideLlobregat-11_2_I-1-1.con.xml"/>
        <tllogic-files value="./converted_scenarios/scenario-factory/ESP_SantBoideLlobregat-11_2_I-1-1/ESP_SantBoideLlobregat-11_2_I-1-1.tll.xml"/>
        <type-files value="/home/zen/commonroad-interactive-benchmarks/install/commonroad-map-tool/crmapconverter/sumo_map/templates/DEU.typ.xml"/>
    </input>

    <output>
        <output-file value="./converted_scenarios/scenario-factory/ESP_SantBoideLlobregat-11_2_I-1-1/ESP_SantBoideLlobregat-11_2_I-1-1.net.xml"/>
    </output>

    <processing>
        <geometry.remove.keep-edges.explicit value="true"/>
        <geometry.avoid-overlap value="true"/>
        <offset.disable-normalization value="true"/>
    </processing>

    <junctions>
        <no-turnarounds value="true"/>
        <junctions.internal-link-detail value="20"/>
    </junctions>

    <report>
        <aggregate-warnings value="5"/>
    </report>

    <random_number>
        <seed value="1234"/>
    </random_number>

</configuration>
--><net xmlns:xsi="http://www.w3.org/2001/XMLSchema-instance" version="1.6" junctionCornerDetail="5" junctionLinkDetail="20" limitTurnSpeed="5.50" xsi:noNamespaceSchemaLocation="http://sumo.dlr.de/xsd/net_file.xsd">

    <location netOffset="0.00,0.00" convBoundary="-194.48,-131.67,60.35,102.74" origBoundary="-194.48,-131.67,60.35,102.74" projParameter="!"/>

    <type id="highway.bridleway" priority="1" speed="2.78" allow="pedestrian" oneway="1" width="2.00"/>
    <type id="highway.bus_guideway" priority="1" speed="27.78" allow="bus" oneway="1"/>
    <type id="highway.cycleway" priority="1" speed="8.33" allow="bicycle" oneway="0" width="1.00"/>
    <type id="highway.footway" priority="1" speed="2.78" allow="pedestrian" oneway="1" width="2.00"/>
    <type id="highway.ford" priority="1" speed="2.78" allow="army" oneway="0"/>
    <type id="highway.living_street" priority="2" speed="2.78" disallow="tram rail_urban rail rail_electric rail_fast ship" oneway="0"/>
    <type id="highway.motorway" priority="14" speed="39.44" allow="private emergency authority army vip passenger hov taxi bus coach delivery truck trailer motorcycle evehicle custom1 custom2" oneway="1"/>
    <type id="highway.motorway_link" priority="9" speed="22.22" allow="private emergency authority army vip passenger hov taxi bus coach delivery truck trailer motorcycle evehicle custom1 custom2" oneway="1"/>
    <type id="highway.path" priority="1" speed="2.78" allow="pedestrian bicycle" oneway="0" width="2.00"/>
    <type id="highway.pedestrian" priority="1" speed="2.78" allow="pedestrian" oneway="1" width="2.00"/>
    <type id="highway.primary" priority="12" speed="27.78" disallow="pedestrian tram rail_urban rail rail_electric rail_fast ship" oneway="0"/>
    <type id="highway.primary_link" priority="7" speed="22.22" disallow="pedestrian tram rail_urban rail rail_electric rail_fast ship" oneway="0"/>
    <type id="highway.raceway" priority="15" speed="83.33" allow="vip" oneway="0"/>
    <type id="highway.residential" priority="3" speed="13.89" disallow="pedestrian tram rail_urban rail rail_electric rail_fast ship" oneway="0"/>
    <type id="highway.secondary" priority="11" speed="27.78" disallow="pedestrian tram rail_urban rail rail_electric rail_fast ship" oneway="0"/>
    <type id="highway.secondary_link" priority="6" speed="22.22" disallow="pedestrian tram rail_urban rail rail_electric rail_fast ship" oneway="0"/>
    <type id="highway.service" priority="1" speed="5.56" allow="pedestrian delivery bicycle" oneway="0"/>
    <type id="highway.stairs" priority="1" speed="1.39" allow="pedestrian" oneway="1" width="2.00"/>
    <type id="highway.step" priority="1" speed="1.39" allow="pedestrian" oneway="1" width="2.00"/>
    <type id="highway.steps" priority="1" speed="1.39" allow="pedestrian" oneway="1" width="2.00"/>
    <type id="highway.tertiary" priority="10" speed="22.22" disallow="pedestrian tram rail_urban rail rail_electric rail_fast ship" oneway="0"/>
    <type id="highway.tertiary_link" priority="5" speed="22.22" disallow="pedestrian tram rail_urban rail rail_electric rail_fast ship" oneway="0"/>
    <type id="highway.track" priority="1" speed="5.56" allow="pedestrian motorcycle moped bicycle" oneway="0"/>
    <type id="highway.trunk" priority="13" speed="27.78" disallow="pedestrian bicycle tram rail_urban rail rail_electric rail_fast ship" oneway="0"/>
    <type id="highway.trunk_link" priority="8" speed="22.22" disallow="pedestrian bicycle tram rail_urban rail rail_electric rail_fast ship" oneway="0"/>
    <type id="highway.unclassified" priority="4" speed="13.89" disallow="pedestrian tram rail_urban rail rail_electric rail_fast ship" oneway="0"/>
    <type id="highway.unsurfaced" priority="1" speed="8.33" disallow="tram rail_urban rail rail_electric rail_fast ship" oneway="0"/>
    <type id="railway.highspeed" priority="21" speed="69.44" allow="rail_fast" oneway="1"/>
    <type id="railway.light_rail" priority="19" speed="27.78" allow="rail_urban" oneway="1"/>
    <type id="railway.preserved" priority="16" speed="27.78" allow="rail" oneway="1"/>
    <type id="railway.rail" priority="20" speed="44.44" allow="rail" oneway="1"/>
    <type id="railway.subway" priority="18" speed="27.78" allow="rail_urban" oneway="1"/>
    <type id="railway.tram" priority="17" speed="13.89" allow="tram" oneway="1"/>

    <edge id=":30_0" function="internal">
        <lane id=":30_0_0" index="0" disallow="pedestrian tram rail_urban rail rail_electric rail_fast ship" speed="8.79" length="16.96" width="3.50" shape="-2.59,17.11 -5.77,15.55 -8.53,14.56 -10.82,14.02 -13.16,13.79 -15.51,13.93 -17.23,14.30 -18.79,14.88"/>
    </edge>
    <edge id=":30_1" function="internal">
        <lane id=":30_1_0" index="0" disallow="pedestrian tram rail_urban rail rail_electric rail_fast ship" speed="36.11" length="39.01" width="3.50" shape="-2.59,17.11 -11.59,12.17 -36.93,-1.39"/>
    </edge>
    <edge id=":30_2" function="internal">
        <lane id=":30_2_0" index="0" disallow="pedestrian tram rail_urban rail rail_electric rail_fast ship" speed="10.05" length="20.48" width="3.50" shape="-14.37,-0.67 -13.80,1.10 -12.84,3.15 -11.31,5.52 -9.48,7.67 -7.43,9.60 -4.75,11.67 -1.40,13.76 -0.91,14.04"/>
    </edge>
    <edge id=":30_3" function="internal">
        <lane id=":30_3_0" index="0" disallow="pedestrian tram rail_urban rail rail_electric rail_fast ship" speed="36.11" length="15.52" width="3.50" shape="-17.34,-1.82 -20.43,8.31 -22.12,12.94"/>
    </edge>
    <edge id=":30_4" function="internal">
        <lane id=":30_4_0" index="0" disallow="pedestrian tram rail_urban rail rail_electric rail_fast ship" speed="8.67" length="18.26" width="3.50" shape="-20.10,-2.88 -21.70,-1.49 -23.21,-0.53 -24.84,0.22 -26.57,0.69 -28.35,0.90 -30.14,0.83 -32.49,0.39 -34.76,-0.38 -36.93,-1.39"/>
    </edge>
    <edge id=":30_5" function="internal">
        <lane id=":30_5_0" index="0" disallow="pedestrian tram rail_urban rail rail_electric rail_fast ship" speed="36.11" length="39.06" width="3.50" shape="-35.29,-4.49 -9.92,9.10 -0.91,14.04"/>
    </edge>
    <edge id=":30_6" function="internal">
        <lane id=":30_6_0" index="0" disallow="pedestrian tram rail_urban rail rail_electric rail_fast ship" speed="9.70" length="21.94" width="3.50" shape="-35.29,-4.49 -32.24,-2.71 -29.85,-0.99 -27.67,0.99 -26.14,2.78 -24.87,4.76 -23.92,6.91 -23.46,8.61 -23.18,10.95 -23.24,12.29"/>
    </edge>
    <edge id=":31_0" function="internal">
        <lane id=":31_0_0" index="0" disallow="pedestrian tram rail_urban rail rail_electric rail_fast ship" speed="36.11" length="39.42" width="3.50" shape="-112.78,-42.92 -118.87,-46.92 -134.33,-57.34 -145.34,-65.14"/>
    </edge>
    <edge id=":31_1" function="internal">
        <lane id=":31_1_0" index="0" disallow="pedestrian tram rail_urban rail rail_electric rail_fast ship" speed="12.33" length="34.80" width="3.50" shape="-112.78,-42.92 -115.93,-45.21 -117.86,-46.92 -119.61,-48.80 -121.12,-50.88 -122.34,-53.14 -122.81,-54.34 -123.19,-55.57 -123.46,-56.83 -123.62,-58.10 -123.68,-59.39 -123.51,-61.95 -122.98,-64.47 -122.16,-66.91 -121.11,-69.26 -119.18,-72.64"/>
    </edge>
    <edge id=":31_2" function="internal">
        <lane id=":31_2_0" index="0" disallow="pedestrian tram rail_urban rail rail_electric rail_fast ship" speed="11.34" length="29.26" width="3.50" shape="-116.23,-70.76 -117.92,-67.80 -118.82,-65.80 -119.51,-63.73 -119.95,-61.64 -120.10,-59.50 -120.05,-58.49 -119.91,-57.46 -119.70,-56.45 -119.39,-55.46 -119.03,-54.52 -118.02,-52.63 -116.75,-50.90 -115.27,-49.31 -113.63,-47.85 -110.87,-45.85"/>
    </edge>
    <edge id=":31_3" function="internal">
        <lane id=":31_3_0" index="0" disallow="pedestrian tram rail_urban rail rail_electric rail_fast ship" speed="11.90" length="34.55" width="3.50" shape="-116.23,-70.76 -118.56,-67.48 -120.30,-65.49 -122.25,-63.68 -124.40,-62.13 -125.56,-61.48 -126.77,-60.94 -128.02,-60.50 -129.31,-60.19 -130.63,-59.99 -131.95,-59.92 -133.28,-59.98 -134.60,-60.14 -137.17,-60.78 -139.65,-61.74 -142.00,-62.96 -145.34,-65.14"/>
    </edge>
    <edge id=":31_4" function="internal">
        <lane id=":31_4_0" index="0" disallow="pedestrian tram rail_urban rail rail_electric rail_fast ship" speed="10.89" length="28.74" width="3.50" shape="-143.29,-67.98 -140.38,-66.07 -138.38,-65.04 -136.32,-64.23 -134.17,-63.71 -133.14,-63.58 -132.08,-63.54 -131.03,-63.59 -130.00,-63.75 -128.98,-64.00 -127.99,-64.34 -127.02,-64.78 -126.11,-65.29 -124.31,-66.58 -122.68,-68.09 -121.20,-69.79 -119.18,-72.64"/>
    </edge>
    <edge id=":31_5" function="internal">
        <lane id=":31_5_0" index="0" disallow="pedestrian tram rail_urban rail rail_electric rail_fast ship" speed="36.11" length="39.26" width="3.50" shape="-143.29,-67.98 -132.33,-60.21 -116.93,-49.83 -110.87,-45.85"/>
    </edge>
    <edge id=":32_0" function="internal">
        <lane id=":32_0_0" index="0" disallow="pedestrian tram rail_urban rail rail_electric rail_fast ship" speed="3.20" length="1.28" width="3.50" shape="-130.54,74.46 -130.42,75.15 -130.24,75.70"/>
    </edge>
    <edge id=":32_1" function="internal">
        <lane id=":32_1_0" index="0" disallow="pedestrian tram rail_urban rail rail_electric rail_fast ship" speed="36.11" length="9.45" width="3.50" shape="-133.85,72.48 -139.16,80.30"/>
    </edge>
    <edge id=":34_0" function="internal">
        <lane id=":34_0_0" index="0" disallow="pedestrian tram rail_urban rail rail_electric rail_fast ship" speed="9.00" length="17.39" width="3.50" shape="-61.25,-14.21 -64.43,-15.68 -67.18,-16.60 -69.46,-17.08 -71.78,-17.26 -74.10,-17.09 -75.80,-16.71 -77.44,-16.10 -77.89,-15.85"/>
    </edge>
    <edge id=":34_1" function="internal">
        <lane id=":34_1_0" index="0" disallow="pedestrian tram rail_urban rail rail_electric rail_fast ship" speed="36.11" length="36.34" width="3.50" shape="-61.25,-14.21 -77.30,-22.72 -93.36,-31.23"/>
    </edge>
    <edge id=":34_2" function="internal">
        <lane id=":34_2_0" index="0" disallow="pedestrian tram rail_urban rail rail_electric rail_fast ship" speed="36.11" length="36.26" width="3.50" shape="-91.67,-34.29 -75.66,-25.81 -59.63,-17.31"/>
    </edge>
    <edge id=":34_3" function="internal">
        <lane id=":34_3_0" index="0" disallow="pedestrian tram rail_urban rail rail_electric rail_fast ship" speed="9.40" length="20.21" width="3.50" shape="-91.67,-34.29 -89.16,-32.77 -86.84,-30.98 -85.18,-29.33 -83.77,-27.46 -82.91,-25.92 -82.27,-24.29 -81.86,-22.58 -81.67,-20.24 -81.82,-18.20"/>
    </edge>

    <edge id="140869" from="30" to="22" priority="3" type="highway.residential" spreadType="center" length="70.00" shape="-18.46,4.05 60.35,47.91">
        <lane id="140869_0" index="0" disallow="pedestrian tram rail_urban rail rail_electric rail_fast ship" speed="36.11" length="70.00" width="3.50" customShape="1" shape="-0.91,14.04 32.93,32.75 60.35,47.91"/>
    </edge>
    <edge id="140870" from="28" to="30" priority="3" type="highway.residential" spreadType="center" length="70.02" shape="58.67,50.98 -20.16,7.11">
        <lane id="140870_0" index="0" disallow="pedestrian tram rail_urban rail rail_electric rail_fast ship" speed="36.11" length="70.02" width="3.50" customShape="1" shape="58.67,50.98 31.24,35.81 -2.61,17.10"/>
    </edge>
    <edge id="140872" from="34" to="30" priority="3" type="highway.residential" spreadType="center" length="27.51" shape="-77.64,-22.65 -18.56,4.00">
        <lane id="140872_0" index="0" disallow="pedestrian tram rail_urban rail rail_electric rail_fast ship" speed="36.11" length="27.51" width="3.50" customShape="1" shape="-59.63,-17.31 -47.46,-10.90 -35.29,-4.49"/>
    </edge>
    <edge id="140873" from="30" to="34" priority="3" type="highway.residential" spreadType="center" length="27.51" shape="-20.00,7.19 -79.08,-19.46">
        <lane id="140873_0" index="0" disallow="pedestrian tram rail_urban rail rail_electric rail_fast ship" speed="36.11" length="27.51" width="3.50" customShape="1" shape="-36.93,-1.39 -49.09,-7.80 -61.27,-14.22"/>
    </edge>
    <edge id="140875" from="31" to="34" priority="3" type="highway.residential" spreadType="center" length="22.46" shape="-123.48,-62.21 -77.14,-22.33">
        <lane id="140875_0" index="0" disallow="pedestrian tram rail_urban rail rail_electric rail_fast ship" speed="36.11" length="22.46" width="3.50" customShape="1" shape="-110.87,-45.85 -109.18,-44.76 -100.09,-39.09 -91.63,-34.27"/>
    </edge>
    <edge id="140876" from="34" to="31" priority="3" type="highway.residential" spreadType="center" length="22.71" shape="-79.42,-19.68 -125.76,-59.56">
        <lane id="140876_0" index="0" disallow="pedestrian tram rail_urban rail rail_electric rail_fast ship" speed="36.11" length="22.71" width="3.50" customShape="1" shape="-93.36,-31.23 -101.88,-36.08 -111.07,-41.81 -112.81,-42.94"/>
    </edge>
    <edge id="140878" from="27" to="31" priority="3" type="highway.residential" spreadType="center" length="64.62" shape="-192.04,-110.17 -123.59,-62.30">
        <lane id="140878_0" index="0" disallow="pedestrian tram rail_urban rail rail_electric rail_fast ship" speed="36.11" length="64.62" width="3.50" customShape="1" shape="-192.04,-110.17 -181.23,-99.58 -171.96,-91.03 -163.57,-83.77 -154.54,-76.48 -143.23,-67.93"/>
    </edge>
    <edge id="140879" from="31" to="18" priority="3" type="highway.residential" spreadType="center" length="65.06" shape="-125.59,-59.43 -194.48,-107.67">
        <lane id="140879_0" index="0" disallow="pedestrian tram rail_urban rail rail_electric rail_fast ship" speed="36.11" length="65.06" width="3.50" customShape="1" shape="-145.34,-65.14 -156.69,-73.72 -165.80,-81.08 -174.27,-88.40 -183.61,-97.02 -194.48,-107.67"/>
    </edge>
    <edge id="140881" from="34" to="32" priority="3" type="highway.residential" spreadType="center" length="104.53">
        <lane id="140881_0" index="0" disallow="pedestrian tram rail_urban rail rail_electric rail_fast ship" speed="36.11" length="104.53" width="3.50" customShape="1" shape="-80.22,-17.24 -106.53,26.79 -133.85,72.48"/>
    </edge>
    <edge id="140903" from="26" to="31" priority="3" type="highway.residential" spreadType="center" length="70.00" shape="-78.61,-129.79 -123.17,-59.91">
        <lane id="140903_0" index="0" disallow="pedestrian tram rail_urban rail rail_electric rail_fast ship" speed="36.11" length="70.00" width="3.50" customShape="1" shape="-78.61,-129.79 -116.23,-70.76"/>
    </edge>
    <edge id="140904" from="31" to="20" priority="3" type="highway.residential" spreadType="center" length="70.00" shape="-126.12,-61.80 -81.56,-131.67">
        <lane id="140904_0" index="0" disallow="pedestrian tram rail_urban rail rail_electric rail_fast ship" speed="36.11" length="70.00" width="3.50" customShape="1" shape="-119.18,-72.64 -81.56,-131.67"/>
    </edge>
    <edge id="140926" from="25" to="30" priority="3" type="highway.residential" spreadType="center" length="83.14">
        <lane id="140926_0" index="0" disallow="pedestrian tram rail_urban rail rail_electric rail_fast ship" speed="36.11" length="83.14" width="3.50" customShape="1" shape="19.99,-75.74 17.19,-71.62 10.12,-60.58 4.18,-50.63 -0.92,-41.36 -5.46,-32.36 -9.43,-23.65 -13.06,-14.79 -17.96,-2.05"/>
    </edge>
    <edge id="140928" from="30" to="21" priority="3" type="highway.residential" spreadType="center" length="80.69">
        <lane id="140928_0" index="0" disallow="pedestrian tram rail_urban rail rail_electric rail_fast ship" speed="36.11" length="80.69" width="3.50" customShape="1" shape="-21.33,13.40 -48.25,59.74 -61.86,83.17"/>
    </edge>
    <edge id="140952" from="32" to="29" priority="3" type="highway.residential" spreadType="center" length="45.92">
        <lane id="140952_0" index="0" disallow="pedestrian tram rail_urban rail rail_electric rail_fast ship" speed="36.11" length="45.92" width="3.50" customShape="1" shape="-132.23,78.98 -107.42,93.98 -92.94,102.74"/>
    </edge>
    <edge id="141203" from="32" to="33" priority="3" type="highway.residential" spreadType="center" length="12.02">
        <lane id="141203_0" index="0" disallow="pedestrian tram rail_urban rail rail_electric rail_fast ship" speed="36.11" length="12.02" width="3.50" customShape="1" shape="-139.16,80.30 -141.86,84.41 -145.90,90.25"/>
    </edge>

    <junction id="18" type="dead_end" x="-194.48" y="-107.67" incLanes="140879_0" intLanes="" shape="-195.71,-106.42 -193.26,-108.92" rightOfWay="edgePriority"/>
    <junction id="20" type="dead_end" x="-81.56" y="-131.67" incLanes="140904_0" intLanes="" shape="-83.04,-132.61 -80.08,-130.73" rightOfWay="edgePriority"/>
    <junction id="21" type="dead_end" x="-61.86" y="83.17" incLanes="140928_0" intLanes="" shape="-60.35,84.05 -63.37,82.29" rightOfWay="edgePriority"/>
    <junction id="22" type="dead_end" x="60.35" y="47.91" incLanes="140869_0" intLanes="" shape="61.19,46.38 59.50,49.44" rightOfWay="edgePriority"/>
    <junction id="25" type="dead_end" x="19.99" y="-75.74" incLanes="" intLanes="" shape="18.55,-76.73 21.44,-74.76" rightOfWay="edgePriority"/>
    <junction id="26" type="dead_end" x="-78.61" y="-129.79" incLanes="" intLanes="" shape="-80.08,-130.73 -77.13,-128.85" rightOfWay="edgePriority"/>
    <junction id="27" type="dead_end" x="-192.04" y="-110.17" incLanes="" intLanes="" shape="-193.26,-108.93 -190.81,-111.42" rightOfWay="edgePriority"/>
    <junction id="28" type="dead_end" x="58.67" y="50.98" incLanes="" intLanes="" shape="59.51,49.45 57.82,52.51" rightOfWay="edgePriority"/>
    <junction id="29" type="dead_end" x="-92.94" y="102.74" incLanes="140952_0" intLanes="" shape="-92.03,101.24 -93.84,104.23" rightOfWay="edgePriority"/>
    <junction id="30" type="priority" x="-19.28" y="5.60" incLanes="140870_0 140926_0 140872_0" intLanes=":30_0_0 :30_1_0 :30_2_0 :30_3_0 :30_4_0 :30_5_0 :30_6_0" shape="-3.45,18.63 -0.07,12.51 -5.47,9.38 -9.79,6.58 -13.04,4.10 -15.21,1.94 -16.31,0.09 -16.32,-1.42 -19.59,-2.68 -21.88,-1.39 -24.03,-1.65 -26.84,-2.51 -30.33,-3.97 -34.48,-6.04 -37.74,0.16 -32.63,2.97 -28.57,5.49 -25.56,7.70 -23.60,9.61 -22.70,11.22 -22.84,12.52 -19.82,14.28 -17.08,13.18 -14.69,13.59 -11.63,14.63 -7.88,16.31">
        <request index="0" response="0000000" foes="1001000" cont="0"/>
        <request index="1" response="0000000" foes="1011000" cont="0"/>
        <request index="2" response="0100000" foes="0100000" cont="0"/>
        <request index="3" response="1100011" foes="1100011" cont="0"/>
        <request index="4" response="1100010" foes="1100010" cont="0"/>
        <request index="5" response="0000000" foes="0011100" cont="0"/>
        <request index="6" response="0000011" foes="0011011" cont="0"/>
    </junction>
    <junction id="31" type="priority" x="-124.62" y="-60.89" incLanes="140876_0 140903_0 140878_0" intLanes=":31_0_0 :31_1_0 :31_2_0 :31_3_0 :31_4_0 :31_5_0" shape="-113.73,-41.45 -109.92,-47.32 -113.82,-50.39 -116.48,-53.74 -117.91,-57.35 -118.10,-61.24 -117.04,-65.39 -114.76,-69.82 -120.66,-73.58 -123.71,-69.62 -126.97,-66.95 -130.45,-65.59 -134.14,-65.54 -138.05,-66.78 -142.17,-69.33 -146.39,-63.75">
        <request index="0" response="000000" foes="001000" cont="0"/>
        <request index="1" response="110000" foes="111000" cont="0"/>
        <request index="2" response="100000" foes="100000" cont="0"/>
        <request index="3" response="100011" foes="100011" cont="0"/>
        <request index="4" response="000000" foes="000010" cont="0"/>
        <request index="5" response="000000" foes="001110" cont="0"/>
    </junction>
    <junction id="32" type="priority" x="-124.65" y="73.47" incLanes="140881_0" intLanes=":32_0_0 :32_1_0" shape="-133.13,80.48 -131.32,77.49 -132.57,76.34 -132.85,75.69 -132.91,74.98 -132.74,74.21 -132.34,73.38 -135.35,71.59 -140.65,79.38 -137.67,81.22 -136.44,80.03 -135.72,79.79 -134.93,79.78 -134.06,80.01">
        <request index="0" response="00" foes="00" cont="0"/>
        <request index="1" response="00" foes="00" cont="0"/>
    </junction>
    <junction id="33" type="dead_end" x="-145.90" y="90.25" incLanes="141203_0" intLanes="" shape="-144.47,91.25 -147.34,89.26"/>
    <junction id="34" type="priority" x="-78.32" y="-21.04" incLanes="140873_0 140875_0" intLanes=":34_0_0 :34_1_0 :34_2_0 :34_3_0" shape="-62.08,-12.67 -58.82,-18.86 -90.76,-35.79 -94.22,-29.71 -89.85,-27.10 -86.39,-24.76 -83.85,-22.69 -82.22,-20.90 -81.51,-19.38 -81.72,-18.14 -78.72,-16.34 -75.84,-17.65 -73.40,-17.36 -70.29,-16.43 -66.52,-14.87">
        <request index="0" response="0000" foes="1000" cont="0"/>
        <request index="1" response="0000" foes="1000" cont="0"/>
        <request index="2" response="0000" foes="0000" cont="0"/>
        <request index="3" response="0011" foes="0011" cont="0"/>
    </junction>

    <connection from="140870" to="140928" fromLane="0" toLane="0" contPos="-4.00" shape="-2.59,17.11 -5.77,15.55 -8.53,14.56 -10.82,14.02 -13.16,13.79 -15.51,13.93 -17.23,14.30 -18.88,14.92 -20.44,15.75 -22.32,17.15 -23.98,18.81 -25.76,21.15 -26.70,22.64" via=":30_0_0" dir="r" state="M"/>
    <connection from="140870" to="140873" fromLane="0" toLane="0" contPos="-4.00" shape="-2.59,17.11 -11.59,12.17 -36.93,-1.39" via=":30_1_0" dir="s" state="M"/>
    <connection from="140872" to="140869" fromLane="0" toLane="0" contPos="-4.00" shape="-35.29,-4.49 -9.92,9.10 -0.91,14.04" via=":30_5_0" dir="s" state="M"/>
    <connection from="140872" to="140928" fromLane="0" toLane="0" contPos="-4.00" shape="-35.29,-4.49 -32.24,-2.71 -29.85,-0.99 -27.67,0.99 -26.14,2.78 -24.87,4.76 -23.92,6.91 -23.46,8.61 -23.18,10.95 -23.29,13.30 -23.72,15.62 -24.63,18.42 -25.85,21.10 -26.70,22.64" via=":30_6_0" dir="l" state="m"/>
    <connection from="140873" to="140881" fromLane="0" toLane="0" contPos="-4.00" shape="-61.25,-14.21 -64.43,-15.68 -67.18,-16.60 -69.46,-17.08 -71.78,-17.26 -74.10,-17.09 -75.80,-16.71 -77.44,-16.10 -79.47,-14.98 -81.31,-13.56 -82.95,-11.91 -84.72,-9.60 -85.66,-8.13" via=":34_0_0" dir="r" state="M"/>
    <connection from="140873" to="140876" fromLane="0" toLane="0" contPos="-4.00" shape="-61.25,-14.21 -77.30,-22.72 -93.36,-31.23" via=":34_1_0" dir="s" state="M"/>
    <connection from="140875" to="140872" fromLane="0" toLane="0" contPos="-4.00" shape="-91.67,-34.29 -75.66,-25.81 -59.63,-17.31" via=":34_2_0" dir="s" state="M"/>
    <connection from="140875" to="140881" fromLane="0" toLane="0" contPos="-4.00" shape="-91.67,-34.29 -89.16,-32.77 -86.84,-30.98 -85.18,-29.33 -83.77,-27.46 -82.91,-25.92 -82.27,-24.29 -81.86,-22.58 -81.67,-20.24 -81.84,-17.90 -82.33,-15.61 -83.28,-12.84 -84.79,-9.66 -85.66,-8.13" via=":34_3_0" dir="l" state="m"/>
    <connection from="140876" to="140879" fromLane="0" toLane="0" contPos="-4.00" shape="-112.81,-42.94 -118.87,-46.92 -134.33,-57.34 -145.34,-65.14" via=":31_0_0" dir="s" state="M"/>
    <connection from="140876" to="140904" fromLane="0" toLane="0" contPos="-4.00" shape="-112.81,-42.94 -115.93,-45.21 -117.86,-46.92 -119.61,-48.80 -121.12,-50.88 -122.34,-53.14 -122.81,-54.34 -123.19,-55.57 -123.46,-56.83 -123.62,-58.10 -123.68,-59.39 -123.51,-61.95 -122.98,-64.47 -122.16,-66.91 -121.11,-69.26 -119.18,-72.64" via=":31_1_0" dir="l" state="m"/>
    <connection from="140878" to="140904" fromLane="0" toLane="0" contPos="-4.00" shape="-143.29,-67.98 -140.38,-66.07 -138.38,-65.04 -136.32,-64.23 -134.17,-63.71 -133.14,-63.58 -132.08,-63.54 -131.03,-63.59 -130.00,-63.75 -128.98,-64.00 -127.99,-64.34 -127.02,-64.78 -126.11,-65.29 -124.31,-66.58 -122.68,-68.09 -121.20,-69.79 -119.18,-72.64" via=":31_4_0" dir="r" state="M"/>
    <connection from="140878" to="140875" fromLane="0" toLane="0" contPos="-4.00" shape="-143.29,-67.98 -132.33,-60.21 -116.93,-49.83 -110.87,-45.85" via=":31_5_0" dir="s" state="M"/>
    <connection from="140881" to="140952" fromLane="0" toLane="0" contPos="-4.00" shape="-127.41,61.71 -128.80,64.30 -129.90,67.03 -130.50,69.31 -130.78,71.65 -130.72,73.41 -130.42,75.15 -129.87,76.83 -129.10,78.42 -127.75,80.35 -126.14,82.07 -123.86,83.93 -121.90,85.23" via=":32_0_0" dir="r" state="M"/>
    <connection from="140881" to="141203" fromLane="0" toLane="0" contPos="-4.00" via=":32_1_0" dir="s" state="M"/>
    <connection from="140903" to="140875" fromLane="0" toLane="0" contPos="-4.00" shape="-116.23,-70.76 -117.92,-67.80 -118.82,-65.80 -119.51,-63.73 -119.95,-61.64 -120.10,-59.50 -120.05,-58.49 -119.91,-57.46 -119.70,-56.45 -119.39,-55.46 -119.03,-54.52 -118.02,-52.63 -116.75,-50.90 -115.27,-49.31 -113.63,-47.85 -110.87,-45.85" via=":31_2_0" dir="r" state="m"/>
    <connection from="140903" to="140879" fromLane="0" toLane="0" contPos="-4.00" shape="-116.23,-70.76 -118.56,-67.48 -120.30,-65.49 -122.25,-63.68 -124.40,-62.13 -125.56,-61.48 -126.77,-60.94 -128.02,-60.50 -129.31,-60.19 -130.63,-59.99 -131.95,-59.92 -133.28,-59.98 -134.60,-60.14 -137.17,-60.78 -139.65,-61.74 -142.00,-62.96 -145.34,-65.14" via=":31_3_0" dir="l" state="m"/>
    <connection from="140926" to="140869" fromLane="0" toLane="0" contPos="-4.00" shape="-13.24,-14.32 -14.28,-11.10 -14.83,-8.33 -15.03,-5.52 -14.90,-3.26 -14.49,-1.04 -13.80,1.10 -12.84,3.15 -11.31,5.52 -9.48,7.67 -7.43,9.60 -4.75,11.67 -1.40,13.76 -0.91,14.04" via=":30_2_0" dir="r" state="m"/>
    <connection from="140926" to="140928" fromLane="0" toLane="0" contPos="-4.00" shape="-13.24,-14.32 -15.41,-8.12 -20.43,8.31 -22.51,14.01 -24.56,18.63 -26.70,22.64" via=":30_3_0" dir="s" state="m"/>
    <connection from="140926" to="140873" fromLane="0" toLane="0" contPos="-4.00" shape="-13.24,-14.32 -14.90,-10.47 -16.61,-7.32 -18.31,-4.86 -19.89,-3.06 -21.70,-1.49 -23.21,-0.53 -24.84,0.22 -26.57,0.69 -28.35,0.90 -30.14,0.83 -32.49,0.39 -34.76,-0.38 -36.93,-1.39" via=":30_4_0" dir="l" state="m"/>

    <connection from=":30_0" to="140928" fromLane="0" toLane="0" dir="r" state="M"/>
    <connection from=":30_1" to="140873" fromLane="0" toLane="0" dir="s" state="M"/>
    <connection from=":30_2" to="140869" fromLane="0" toLane="0" dir="r" state="M"/>
    <connection from=":30_3" to="140928" fromLane="0" toLane="0" dir="s" state="M"/>
    <connection from=":30_4" to="140873" fromLane="0" toLane="0" dir="l" state="M"/>
    <connection from=":30_5" to="140869" fromLane="0" toLane="0" dir="s" state="M"/>
    <connection from=":30_6" to="140928" fromLane="0" toLane="0" dir="l" state="M"/>
    <connection from=":31_0" to="140879" fromLane="0" toLane="0" dir="s" state="M"/>
    <connection from=":31_1" to="140904" fromLane="0" toLane="0" dir="l" state="M"/>
    <connection from=":31_2" to="140875" fromLane="0" toLane="0" dir="r" state="M"/>
    <connection from=":31_3" to="140879" fromLane="0" toLane="0" dir="l" state="M"/>
    <connection from=":31_4" to="140904" fromLane="0" toLane="0" dir="r" state="M"/>
    <connection from=":31_5" to="140875" fromLane="0" toLane="0" dir="s" state="M"/>
    <connection from=":32_0" to="140952" fromLane="0" toLane="0" dir="r" state="M"/>
    <connection from=":32_1" to="141203" fromLane="0" toLane="0" dir="s" state="M"/>
    <connection from=":34_0" to="140881" fromLane="0" toLane="0" dir="r" state="M"/>
    <connection from=":34_1" to="140876" fromLane="0" toLane="0" dir="s" state="M"/>
    <connection from=":34_2" to="140872" fromLane="0" toLane="0" dir="s" state="M"/>
    <connection from=":34_3" to="140881" fromLane="0" toLane="0" dir="l" state="M"/>

</net>