<routes>
	<vehicle depart="0.1" departLane="0" departPos="15.188895163678653" departSpeed="0.62239807" id="38" type="passenger">
		<route edges="140876 140879"/>
	</vehicle>
	<vehicle depart="0.1" departLane="0" departPos="22.794369978964152" departSpeed="1.0759704" id="39" type="passenger">
		<route edges="140876 140879"/>
	</vehicle>
	<vehicle depart="0.1" departLane="0" departPos="4.829681050512379" departSpeed="0.86700329" id="310" type="passenger">
		<route edges="140876 140879"/>
	</vehicle>
	<vehicle depart="0.1" departLane="0" departPos="52.610714117260194" departSpeed="0.011832444" id="318" type="passenger">
		<route edges="140903 140875"/>
	</vehicle>
	<vehicle depart="0.1" departLane="0" departPos="20.419301489282343" departSpeed="8.0557547" id="340" type="passenger">
		<route edges=":31_5 140875 140881"/>
	</vehicle>
	<vehicle depart="0.1" departLane="0" departPos="10.533721122945881" departSpeed="5.2311223" id="342" type="passenger">
		<route edges=":31_5 140875"/>
	</vehicle>
	<vehicle depart="0.1" departLane="0" departPos="64.57380467367352" departSpeed="5.1400592" id="345" type="passenger">
		<route edges="140878 140904"/>
	</vehicle>
	<vehicle depart="0.1" departLane="0" departPos="30.810054566504373" departSpeed="5.963994" id="351" type="passenger">
		<route edges="140878 140904"/>
	</vehicle>
	<vehicle depart="0.1" departLane="0" departPos="15.098570354535557" departSpeed="7.3449335" id="353" type="passenger">
		<route edges="140878 140904"/>
	</vehicle>
	<vehicle depart="0.1" departLane="0" departPos="22.593717618102215" departSpeed="8.4088465" id="30" type="truck">
		<route edges=":31_2 140875 140881"/>
	</vehicle>
</routes>
