<routes>
	<vehicle depart="0.1" departLane="0" departPos="63.575135390458414" departSpeed="0.54465592" id="39" type="bicycle">
		<route edges="2709 3833"/>
	</vehicle>
	<vehicle depart="0.1" departLane="0" departPos="72.28940987235426" departSpeed="0.40782379" id="38" type="passenger">
		<route edges="2709 2712 2816"/>
	</vehicle>
	<vehicle depart="0.1" departLane="0" departPos="63.6687570477244" departSpeed="0.38198337" id="310" type="passenger">
		<route edges="2709 3833"/>
	</vehicle>
	<vehicle depart="0.1" departLane="0" departPos="48.27339059548023" departSpeed="0.44593993" id="313" type="passenger">
		<route edges="2709 3833"/>
	</vehicle>
	<vehicle depart="0.1" departLane="0" departPos="50.92092054937631" departSpeed="0.0" id="319" type="passenger">
		<route edges="3832 2708"/>
	</vehicle>
	<vehicle depart="0.1" departLane="0" departPos="43.843697405548134" departSpeed="0.0" id="323" type="passenger">
		<route edges="3832 2708"/>
	</vehicle>
	<vehicle depart="0.1" departLane="0" departPos="17.671211148182238" departSpeed="2.0161791" id="324" type="passenger">
		<route edges=":38_0 3833"/>
	</vehicle>
	<vehicle depart="0.1" departLane="0" departPos="10.157109098735425" departSpeed="0.24187285" id="327" type="passenger">
		<route edges=":38_0 3833"/>
	</vehicle>
	<vehicle depart="0.1" departLane="0" departPos="45.26908468769307" departSpeed="8.0331358" id="341" type="passenger">
		<route edges="2711 3829"/>
	</vehicle>
</routes>
