<!-- generated on Tue Feb  9 22:19:15 2021 by Eclipse SUMO netconvert Version 1.8.0
<configuration xmlns:xsi="http://www.w3.org/2001/XMLSchema-instance" xsi:noNamespaceSchemaLocation="http://sumo.dlr.de/xsd/netconvertConfiguration.xsd">

    <input>
        <node-files value="./converted_scenarios/scenario-factory/HRV_Pula-8_1_I-1-1/HRV_Pula-8_1_I-1-1.nod.xml"/>
        <edge-files value="./converted_scenarios/scenario-factory/HRV_Pula-8_1_I-1-1/HRV_Pula-8_1_I-1-1.edg.xml"/>
        <connection-files value="./converted_scenarios/scenario-factory/HRV_Pula-8_1_I-1-1/HRV_Pula-8_1_I-1-1.con.xml"/>
        <tllogic-files value="./converted_scenarios/scenario-factory/HRV_Pula-8_1_I-1-1/HRV_Pula-8_1_I-1-1.tll.xml"/>
        <type-files value="/home/zen/commonroad-interactive-benchmarks/install/commonroad-map-tool/crmapconverter/sumo_map/templates/DEU.typ.xml"/>
    </input>

    <output>
        <output-file value="./converted_scenarios/scenario-factory/HRV_Pula-8_1_I-1-1/HRV_Pula-8_1_I-1-1.net.xml"/>
    </output>

    <processing>
        <geometry.remove.keep-edges.explicit value="true"/>
        <geometry.avoid-overlap value="true"/>
        <offset.disable-normalization value="true"/>
    </processing>

    <junctions>
        <no-turnarounds value="true"/>
        <junctions.internal-link-detail value="20"/>
    </junctions>

    <report>
        <aggregate-warnings value="5"/>
    </report>

    <random_number>
        <seed value="1234"/>
    </random_number>

</configuration>
--><net xmlns:xsi="http://www.w3.org/2001/XMLSchema-instance" version="1.6" junctionCornerDetail="5" junctionLinkDetail="20" limitTurnSpeed="5.50" xsi:noNamespaceSchemaLocation="http://sumo.dlr.de/xsd/net_file.xsd">

    <location netOffset="0.00,0.00" convBoundary="108.97,298.95,347.27,474.87" origBoundary="108.97,297.90,347.27,477.90" projParameter="!"/>

    <type id="highway.bridleway" priority="1" speed="2.78" allow="pedestrian" oneway="1" width="2.00"/>
    <type id="highway.bus_guideway" priority="1" speed="27.78" allow="bus" oneway="1"/>
    <type id="highway.cycleway" priority="1" speed="8.33" allow="bicycle" oneway="0" width="1.00"/>
    <type id="highway.footway" priority="1" speed="2.78" allow="pedestrian" oneway="1" width="2.00"/>
    <type id="highway.ford" priority="1" speed="2.78" allow="army" oneway="0"/>
    <type id="highway.living_street" priority="2" speed="2.78" disallow="tram rail_urban rail rail_electric rail_fast ship" oneway="0"/>
    <type id="highway.motorway" priority="14" speed="39.44" allow="private emergency authority army vip passenger hov taxi bus coach delivery truck trailer motorcycle evehicle custom1 custom2" oneway="1"/>
    <type id="highway.motorway_link" priority="9" speed="22.22" allow="private emergency authority army vip passenger hov taxi bus coach delivery truck trailer motorcycle evehicle custom1 custom2" oneway="1"/>
    <type id="highway.path" priority="1" speed="2.78" allow="pedestrian bicycle" oneway="0" width="2.00"/>
    <type id="highway.pedestrian" priority="1" speed="2.78" allow="pedestrian" oneway="1" width="2.00"/>
    <type id="highway.primary" priority="12" speed="27.78" disallow="pedestrian tram rail_urban rail rail_electric rail_fast ship" oneway="0"/>
    <type id="highway.primary_link" priority="7" speed="22.22" disallow="pedestrian tram rail_urban rail rail_electric rail_fast ship" oneway="0"/>
    <type id="highway.raceway" priority="15" speed="83.33" allow="vip" oneway="0"/>
    <type id="highway.residential" priority="3" speed="13.89" disallow="pedestrian tram rail_urban rail rail_electric rail_fast ship" oneway="0"/>
    <type id="highway.secondary" priority="11" speed="27.78" disallow="pedestrian tram rail_urban rail rail_electric rail_fast ship" oneway="0"/>
    <type id="highway.secondary_link" priority="6" speed="22.22" disallow="pedestrian tram rail_urban rail rail_electric rail_fast ship" oneway="0"/>
    <type id="highway.service" priority="1" speed="5.56" allow="pedestrian delivery bicycle" oneway="0"/>
    <type id="highway.stairs" priority="1" speed="1.39" allow="pedestrian" oneway="1" width="2.00"/>
    <type id="highway.step" priority="1" speed="1.39" allow="pedestrian" oneway="1" width="2.00"/>
    <type id="highway.steps" priority="1" speed="1.39" allow="pedestrian" oneway="1" width="2.00"/>
    <type id="highway.tertiary" priority="10" speed="22.22" disallow="pedestrian tram rail_urban rail rail_electric rail_fast ship" oneway="0"/>
    <type id="highway.tertiary_link" priority="5" speed="22.22" disallow="pedestrian tram rail_urban rail rail_electric rail_fast ship" oneway="0"/>
    <type id="highway.track" priority="1" speed="5.56" allow="pedestrian motorcycle moped bicycle" oneway="0"/>
    <type id="highway.trunk" priority="13" speed="27.78" disallow="pedestrian bicycle tram rail_urban rail rail_electric rail_fast ship" oneway="0"/>
    <type id="highway.trunk_link" priority="8" speed="22.22" disallow="pedestrian bicycle tram rail_urban rail rail_electric rail_fast ship" oneway="0"/>
    <type id="highway.unclassified" priority="4" speed="13.89" disallow="pedestrian tram rail_urban rail rail_electric rail_fast ship" oneway="0"/>
    <type id="highway.unsurfaced" priority="1" speed="8.33" disallow="tram rail_urban rail rail_electric rail_fast ship" oneway="0"/>
    <type id="railway.highspeed" priority="21" speed="69.44" allow="rail_fast" oneway="1"/>
    <type id="railway.light_rail" priority="19" speed="27.78" allow="rail_urban" oneway="1"/>
    <type id="railway.preserved" priority="16" speed="27.78" allow="rail" oneway="1"/>
    <type id="railway.rail" priority="20" speed="44.44" allow="rail" oneway="1"/>
    <type id="railway.subway" priority="18" speed="27.78" allow="rail_urban" oneway="1"/>
    <type id="railway.tram" priority="17" speed="13.89" allow="tram" oneway="1"/>

    <edge id=":13_0" function="internal">
        <lane id=":13_0_0" index="0" disallow="pedestrian tram rail_urban rail rail_electric rail_fast ship" speed="36.11" length="0.10" width="3.50" shape="256.48,471.75 256.48,471.75"/>
    </edge>
    <edge id=":16_0" function="internal">
        <lane id=":16_0_0" index="0" disallow="pedestrian tram rail_urban rail rail_electric rail_fast ship" speed="36.11" length="2.95" width="3.50" shape="214.12,386.82 211.80,388.64"/>
    </edge>
    <edge id=":21_0" function="internal">
        <lane id=":21_0_0" index="0" disallow="pedestrian tram rail_urban rail rail_electric rail_fast ship" speed="36.11" length="3.00" width="3.50" shape="278.51,466.12 281.50,465.92"/>
    </edge>
    <edge id=":31_0" function="internal">
        <lane id=":31_0_0" index="0" disallow="pedestrian tram rail_urban rail rail_electric rail_fast ship" speed="36.11" length="7.94" width="3.50" shape="207.64,387.51 213.73,382.41"/>
        <lane id=":31_0_1" index="1" disallow="pedestrian tram rail_urban rail rail_electric rail_fast ship" speed="36.11" length="7.95" width="3.50" shape="207.64,387.51 213.89,382.60"/>
    </edge>
    <edge id=":32_0" function="internal">
        <lane id=":32_0_0" index="0" disallow="pedestrian tram rail_urban rail rail_electric rail_fast ship" speed="36.11" length="25.28" width="3.50" shape="171.44,430.63 196.69,429.40"/>
    </edge>
    <edge id=":32_1" function="internal">
        <lane id=":32_1_0" index="0" disallow="pedestrian tram rail_urban rail rail_electric rail_fast ship" speed="11.23" length="49.58" width="3.50" shape="198.57,425.76 192.74,425.91 187.88,425.71 184.98,425.38 182.12,424.78 180.28,424.16 178.56,423.25 177.80,422.65 177.15,421.93 176.66,421.09 176.37,420.17 176.29,419.20 176.38,418.23 176.61,417.29 177.35,415.49 178.88,413.01 180.69,410.72 183.34,407.87 187.60,403.89 191.32,400.76"/>
    </edge>
    <edge id=":32_2" function="internal">
        <lane id=":32_2_0" index="0" disallow="pedestrian tram rail_urban rail rail_electric rail_fast ship" speed="36.11" length="61.02" width="3.50" shape="193.53,403.48 184.71,410.43 168.39,422.61 155.42,432.39 145.14,440.65"/>
    </edge>
    <edge id=":32_3" function="internal">
        <lane id=":32_3_0" index="0" disallow="pedestrian tram rail_urban rail rail_electric rail_fast ship" speed="36.11" length="61.07" width="3.50" shape="142.90,437.96 153.23,429.66 166.23,419.86 182.53,407.68 191.32,400.76"/>
    </edge>
    <edge id=":34_0" function="internal">
        <lane id=":34_0_0" index="0" disallow="pedestrian tram rail_urban rail rail_electric rail_fast ship" speed="6.93" length="13.16" width="3.50" shape="217.82,434.70 217.48,435.49 217.10,437.39 217.05,439.33 217.39,441.90 218.05,444.40 219.19,447.44"/>
    </edge>
    <edge id=":34_1" function="internal">
        <lane id=":34_1_0" index="0" disallow="pedestrian tram rail_urban rail rail_electric rail_fast ship" speed="36.11" length="11.76" width="3.50" shape="217.51,428.39 216.12,428.45 205.76,428.93"/>
        <lane id=":34_1_1" index="1" disallow="pedestrian tram rail_urban rail rail_electric rail_fast ship" speed="36.11" length="11.78" width="3.50" shape="217.35,424.89 215.96,424.95 205.58,425.43"/>
    </edge>
    <edge id=":35_0" function="internal">
        <lane id=":35_0_0" index="0" disallow="pedestrian tram rail_urban rail rail_electric rail_fast ship" speed="10.25" length="33.15" width="3.50" shape="260.35,377.07 259.60,373.71 258.72,371.09 257.84,369.21 256.70,367.48 255.77,366.45 254.70,365.59 253.49,364.93 252.17,364.51 250.80,364.34 248.73,364.47 246.72,364.97 244.16,366.01 241.14,367.69 237.74,370.06 236.65,370.91"/>
    </edge>
    <edge id=":35_1" function="internal">
        <lane id=":35_1_0" index="0" disallow="pedestrian tram rail_urban rail rail_electric rail_fast ship" speed="26.93" length="29.69" width="3.50" shape="254.50,362.35 253.41,360.30 249.47,353.81 244.37,346.25 238.07,337.66"/>
    </edge>
    <edge id=":35_2" function="internal">
        <lane id=":35_2_0" index="0" disallow="pedestrian tram rail_urban rail rail_electric rail_fast ship" speed="7.54" length="11.25" width="3.50" shape="261.32,361.20 261.27,360.74 261.27,360.29 261.32,359.85 261.42,359.42 261.57,359.01 261.77,358.60 262.02,358.21 262.33,357.83 262.68,357.46 263.09,357.10 263.54,356.75 264.05,356.41 264.60,356.08 265.21,355.77 265.86,355.46 266.57,355.17 267.33,354.89 268.14,354.62 268.99,354.36"/>
    </edge>
    <edge id=":35_3" function="internal">
        <lane id=":35_3_0" index="0" disallow="pedestrian tram rail_urban rail rail_electric rail_fast ship" speed="13.37" length="40.65" width="3.50" shape="240.86,335.54 243.18,338.90 244.88,341.93 246.04,344.59 246.91,347.36 247.41,350.22 247.51,352.54 247.32,354.86 246.84,357.13 246.08,359.32 244.79,361.92 243.19,364.34 240.94,367.00 238.43,369.42 236.65,370.91"/>
    </edge>
    <edge id=":35_4" function="internal">
        <lane id=":35_4_0" index="0" disallow="pedestrian tram rail_urban rail rail_electric rail_fast ship" speed="11.95" length="32.31" width="3.50" shape="232.29,365.43 235.34,362.78 237.71,360.26 239.45,357.96 240.62,355.97 241.54,353.85 242.15,351.63 242.41,349.34 242.29,347.04 241.81,344.78 241.03,342.61 239.70,340.05 238.07,337.66"/>
    </edge>
    <edge id=":35_5" function="internal">
        <lane id=":35_5_0" index="0" disallow="pedestrian tram rail_urban rail rail_electric rail_fast ship" speed="33.10" length="34.85" width="3.50" shape="234.48,368.16 235.79,367.15 237.25,366.10 238.83,365.02 240.52,363.91 242.29,362.79 244.13,361.67 246.01,360.55 247.92,359.45 249.83,358.38 251.73,357.35 253.59,356.36 255.40,355.43 257.14,354.57 258.78,353.78 260.31,353.08 261.70,352.48 262.94,351.98 264.00,351.61 264.87,351.35"/>
    </edge>
    <edge id=":37_0" function="internal">
        <lane id=":37_0_0" index="0" disallow="pedestrian tram rail_urban rail rail_electric rail_fast ship" speed="36.11" length="15.25" width="3.50" shape="275.74,424.64 271.84,424.97 260.55,425.99"/>
        <lane id=":37_0_1" index="1" disallow="pedestrian tram rail_urban rail rail_electric rail_fast ship" speed="36.11" length="15.29" width="3.50" shape="275.69,423.90 272.27,423.84 260.41,423.32"/>
    </edge>
    <edge id=":37_2" function="internal">
        <lane id=":37_2_0" index="0" disallow="pedestrian tram rail_urban rail rail_electric rail_fast ship" speed="6.83" length="9.55" width="3.50" shape="275.57,422.31 275.31,422.22 273.27,421.15 271.41,419.80 269.75,418.20 268.30,416.33"/>
    </edge>
    <edge id=":37_3" function="internal">
        <lane id=":37_3_0" index="0" disallow="pedestrian tram rail_urban rail rail_electric rail_fast ship" speed="5.77" length="6.50" width="3.50" shape="275.46,420.86 274.85,420.42 273.25,418.80 271.88,416.96 271.31,415.93"/>
    </edge>
    <edge id=":5_0" function="internal">
        <lane id=":5_0_0" index="0" disallow="pedestrian tram rail_urban rail rail_electric rail_fast ship" speed="36.11" length="3.97" width="3.50" shape="227.31,465.82 229.06,469.38"/>
    </edge>
    <edge id=":8_0" function="internal">
        <lane id=":8_0_0" index="0" disallow="pedestrian tram rail_urban rail rail_electric rail_fast ship" speed="36.11" length="3.43" width="3.50" shape="249.25,475.65 252.28,474.04"/>
    </edge>

    <edge id="12113" from="34" to="5" priority="3" type="highway.residential" spreadType="center" length="33.98">
        <lane id="12113_0" index="0" disallow="pedestrian tram rail_urban rail rail_electric rail_fast ship" speed="36.11" length="33.98" width="3.50" customShape="1" shape="213.61,434.72 225.99,462.96 227.31,465.82"/>
    </edge>
    <edge id="12115" from="8" to="13" priority="3" type="highway.residential" spreadType="center" length="4.78">
        <lane id="12115_0" index="0" disallow="pedestrian tram rail_urban rail rail_electric rail_fast ship" speed="36.11" length="4.78" width="3.50" customShape="1" shape="252.28,474.04 253.63,473.31 256.48,471.75"/>
    </edge>
    <edge id="12310" from="21" to="22" priority="3" type="highway.residential" spreadType="center" length="65.89">
        <lane id="12310_0" index="0" disallow="pedestrian tram rail_urban rail rail_electric rail_fast ship" speed="36.11" length="65.89" width="3.50" customShape="1" shape="281.50,465.92 313.64,464.02 347.27,462.02"/>
    </edge>
    <edge id="12424" from="31" to="35" priority="3" type="highway.residential" spreadType="center" length="25.16" shape="210.75,384.98 240.43,354.94">
        <lane id="12424_0" index="0" disallow="pedestrian tram rail_urban rail rail_electric rail_fast ship" speed="36.11" length="25.16" width="3.50" customShape="1" shape="213.73,382.41 215.33,381.02 227.46,369.52 232.10,365.58 232.20,365.50 232.29,365.43"/>
        <lane id="12424_1" index="1" disallow="pedestrian tram rail_urban rail rail_electric rail_fast ship" speed="36.11" length="25.16" width="3.50" customShape="1" shape="213.89,382.60 215.74,381.20 229.40,371.96 234.30,368.30 234.48,368.16"/>
    </edge>
    <edge id="12568" from="16" to="32" priority="3" type="highway.residential" spreadType="center" length="23.55" shape="212.94,387.71 176.10,422.86">
        <lane id="12568_0" index="0" disallow="pedestrian tram rail_urban rail rail_electric rail_fast ship" speed="36.11" length="23.55" width="3.50" customShape="1" shape="211.80,388.64 203.24,395.59 193.52,403.48"/>
    </edge>
    <edge id="12569" from="32" to="31" priority="3" type="highway.residential" spreadType="center" length="21.02" shape="173.69,420.32 210.75,384.98">
        <lane id="12569_0" index="0" disallow="pedestrian tram rail_urban rail rail_electric rail_fast ship" speed="36.11" length="21.02" width="3.50" customShape="1" shape="191.32,400.76 201.03,392.88 207.64,387.51"/>
    </edge>
    <edge id="12584" from="37" to="35" priority="3" type="highway.residential" spreadType="center" length="55.46">
        <lane id="12584_0" index="0" disallow="pedestrian tram rail_urban rail rail_electric rail_fast ship" speed="36.11" length="55.46" width="3.50" customShape="1" shape="265.52,416.70 261.17,382.11 257.87,361.78"/>
        <lane id="12584_1" index="1" disallow="pedestrian tram rail_urban rail rail_electric rail_fast ship" speed="36.11" length="55.58" width="3.50" customShape="1" shape="268.99,416.24 264.62,381.54 261.32,361.20"/>
    </edge>
    <edge id="12754" from="37" to="34" priority="3" type="highway.residential" spreadType="center" length="43.08">
        <lane id="12754_0" index="0" disallow="pedestrian tram rail_urban rail rail_electric rail_fast ship" speed="36.11" length="43.10" width="3.50" customShape="1" shape="260.57,426.33 241.38,427.26 217.52,428.42"/>
        <lane id="12754_1" index="1" disallow="pedestrian tram rail_urban rail rail_electric rail_fast ship" speed="36.11" length="43.08" width="3.50" customShape="1" shape="260.38,422.84 241.21,423.77 217.35,424.92"/>
    </edge>
    <edge id="12860" from="28" to="35" priority="3" type="highway.residential" spreadType="center" length="44.61" shape="215.29,298.95 245.88,356.12">
        <lane id="12860_0" index="0" disallow="pedestrian tram rail_urban rail rail_electric rail_fast ship" speed="36.11" length="44.61" width="3.50" customShape="1" shape="216.68,297.90 230.17,315.67 243.65,333.44"/>
        <lane id="12860_1" index="1" disallow="pedestrian tram rail_urban rail rail_electric rail_fast ship" speed="36.11" length="44.64" width="3.50" customShape="1" shape="213.89,300.01 227.38,317.78 240.88,335.57"/>
    </edge>
    <edge id="12862" from="35" to="24" priority="3" type="highway.residential" spreadType="center" length="44.63" shape="241.19,358.47 211.09,302.11">
        <lane id="12862_0" index="0" disallow="pedestrian tram rail_urban rail rail_electric rail_fast ship" speed="36.11" length="44.63" width="3.50" customShape="1" shape="238.07,337.66 224.59,319.90 211.09,302.11"/>
    </edge>
    <edge id="13000" from="23" to="37" priority="3" type="highway.residential" spreadType="center" length="70.12">
        <lane id="13000_0" index="0" disallow="pedestrian tram rail_urban rail rail_electric rail_fast ship" speed="36.11" length="70.12" width="3.50" customShape="1" shape="345.66,419.38 315.85,421.56 275.73,424.50"/>
    </edge>
    <edge id="13178" from="32" to="19" priority="3" type="highway.residential" spreadType="center" length="44.10" shape="175.98,422.95 111.22,468.84">
        <lane id="13178_0" index="0" disallow="pedestrian tram rail_urban rail rail_electric rail_fast ship" speed="36.11" length="44.10" width="3.50" customShape="1" shape="145.14,440.65 128.97,454.09 111.22,468.84"/>
    </edge>
    <edge id="13179" from="27" to="32" priority="3" type="highway.residential" spreadType="center" length="44.12" shape="108.97,466.16 173.96,420.10">
        <lane id="13179_0" index="0" disallow="pedestrian tram rail_urban rail rail_electric rail_fast ship" speed="36.11" length="44.12" width="3.50" customShape="1" shape="108.97,466.16 126.73,451.40 142.90,437.96"/>
    </edge>
    <edge id="13517" from="34" to="32" priority="3" type="highway.residential" spreadType="center" length="34.36">
        <lane id="13517_0" index="0" disallow="pedestrian tram rail_urban rail rail_electric rail_fast ship" speed="36.11" length="34.36" width="3.50" customShape="1" shape="205.76,428.89 198.87,429.25 171.44,430.63"/>
        <lane id="13517_1" index="1" disallow="pedestrian tram rail_urban rail rail_electric rail_fast ship" speed="36.11" length="34.37" width="3.50" customShape="1" shape="205.58,425.40 198.69,425.75 171.26,427.19"/>
    </edge>
    <edge id="16243" from="32" to="33" priority="3" type="highway.residential" spreadType="center" length="50.09">
        <lane id="16243_0" index="0" disallow="pedestrian tram rail_urban rail rail_electric rail_fast ship" speed="36.11" length="50.09" width="3.50" customShape="1" shape="196.69,429.40 189.57,429.90 181.44,430.82 174.37,431.98 168.38,433.30 162.98,434.85 158.66,436.44 154.94,438.15 151.84,439.94 149.35,441.72 148.94,442.04"/>
    </edge>
    <edge id="16366" from="35" to="16" priority="3" type="highway.residential" spreadType="center" length="27.59" shape="243.95,358.83 212.94,387.71">
        <lane id="16366_0" index="0" disallow="pedestrian tram rail_urban rail rail_electric rail_fast ship" speed="36.11" length="27.59" width="3.50" customShape="1" shape="236.65,370.91 236.55,370.98 236.46,371.06 231.50,374.75 217.86,383.98 214.12,386.82"/>
    </edge>
    <edge id="16367" from="35" to="36" priority="3" type="highway.residential" spreadType="center" length="7.29">
        <lane id="16367_0" index="0" disallow="pedestrian tram rail_urban rail rail_electric rail_fast ship" speed="36.11" length="7.29" width="3.50" customShape="1" shape="264.87,351.35 266.95,350.86 270.53,350.35 272.06,350.25"/>
    </edge>
    <edge id="17049" from="5" to="8" priority="3" type="highway.residential" spreadType="center" length="24.09">
        <lane id="17049_0" index="0" disallow="pedestrian tram rail_urban rail rail_electric rail_fast ship" speed="36.11" length="24.09" width="3.50" customShape="1" shape="229.06,469.38 229.51,470.24 231.17,472.69 232.75,474.45 234.10,475.60 235.60,476.55 237.22,477.27 238.93,477.72 240.70,477.90 242.47,477.82 244.80,477.39 247.05,476.66 249.25,475.65"/>
    </edge>
    <edge id="17067" from="13" to="21" priority="3" type="highway.residential" spreadType="center" length="22.89">
        <lane id="17067_0" index="0" disallow="pedestrian tram rail_urban rail rail_electric rail_fast ship" speed="36.11" length="22.89" width="3.50" customShape="1" shape="256.48,471.75 259.77,470.21 263.68,468.80 268.19,467.60 272.78,466.75 277.93,466.16 278.51,466.12"/>
    </edge>
    <edge id="17711" from="35" to="36" priority="3" type="highway.residential" spreadType="center" length="3.42">
        <lane id="17711_0" index="0" disallow="pedestrian tram rail_urban rail rail_electric rail_fast ship" speed="36.11" length="3.42" width="3.50" customShape="1" shape="268.99,354.36 270.44,353.94 272.34,353.73"/>
    </edge>

    <junction id="13" type="priority" x="256.48" y="471.75" incLanes="12115_0" intLanes=":13_0_0" shape="257.28,473.31 255.79,470.14 255.60,470.24" rightOfWay="edgePriority">
        <request index="0" response="0" foes="0" cont="0"/>
    </junction>
    <junction id="16" type="priority" x="212.94" y="387.71" incLanes="16366_0" intLanes=":16_0_0" shape="215.17,388.21 213.06,385.43 210.70,387.28 212.90,390.00" rightOfWay="edgePriority">
        <request index="0" response="0" foes="0" cont="0"/>
    </junction>
    <junction id="19" type="dead_end" x="111.22" y="468.84" incLanes="13178_0" intLanes="" shape="112.34,470.19 110.10,467.50" rightOfWay="edgePriority"/>
    <junction id="21" type="priority" x="280.00" y="466.01" incLanes="17067_0" intLanes=":21_0_0" shape="281.60,467.67 281.39,464.18 278.39,464.37 278.63,467.86" rightOfWay="edgePriority">
        <request index="0" response="0" foes="0" cont="0"/>
    </junction>
    <junction id="22" type="dead_end" x="347.27" y="462.02" incLanes="12310_0" intLanes="" shape="347.17,460.28 347.38,463.77" rightOfWay="edgePriority"/>
    <junction id="23" type="dead_end" x="345.66" y="419.38" incLanes="" intLanes="" shape="345.53,417.64 345.78,421.13" rightOfWay="edgePriority"/>
    <junction id="24" type="dead_end" x="211.09" y="302.11" incLanes="12862_0" intLanes="" shape="209.70,303.17 212.48,301.05" rightOfWay="edgePriority"/>
    <junction id="27" type="dead_end" x="108.97" y="466.16" incLanes="" intLanes="" shape="110.09,467.50 107.86,464.81" rightOfWay="edgePriority"/>
    <junction id="28" type="dead_end" x="215.29" y="298.95" incLanes="" intLanes="" shape="212.50,301.07 218.07,296.84" rightOfWay="edgePriority"/>
    <junction id="31" type="priority" x="210.75" y="384.98" incLanes="12569_0" intLanes=":31_0_0 :31_0_1" shape="214.99,383.96 212.63,381.04 206.54,386.15 208.74,388.87" rightOfWay="edgePriority">
        <request index="0" response="00" foes="00" cont="0"/>
        <request index="1" response="00" foes="00" cont="0"/>
    </junction>
    <junction id="32" type="priority" x="174.94" y="421.55" incLanes="13517_0 13517_1 12568_0 13179_0" intLanes=":32_0_0 :32_1_0 :32_2_0 :32_3_0" shape="171.52,432.38 171.17,425.44 173.50,422.57 177.21,419.27 182.18,415.06 188.10,410.17 194.63,404.84 190.22,399.40 141.78,436.62 146.26,442.00 196.56,427.65 196.81,431.15">
        <request index="0" response="0000" foes="0000" cont="0"/>
        <request index="1" response="0000" foes="1100" cont="0"/>
        <request index="2" response="0010" foes="0010" cont="0"/>
        <request index="3" response="0010" foes="0010" cont="0"/>
    </junction>
    <junction id="33" type="dead_end" x="148.94" y="442.04" incLanes="16243_0" intLanes="" shape="150.04,443.41 147.84,440.68"/>
    <junction id="34" type="priority" x="217.09" y="433.61" incLanes="12754_0 12754_1" intLanes=":34_0_0 :34_1_0 :34_1_1" shape="212.01,435.42 215.22,434.01 214.77,431.96 215.01,431.23 215.56,430.68 216.43,430.33 217.60,430.17 217.27,423.18 205.49,423.65 205.85,430.64 208.30,431.08 209.38,431.73 210.36,432.67 211.23,433.90">
        <request index="0" response="000" foes="000" cont="0"/>
        <request index="1" response="000" foes="000" cont="0"/>
        <request index="2" response="000" foes="000" cont="0"/>
    </junction>
    <junction id="35" type="priority" x="242.71" y="357.60" incLanes="12584_0 12584_1 12860_0 12860_1 12424_0 12424_1" intLanes=":35_0_0 :35_1_0 :35_2_0 :35_3_0 :35_4_0 :35_5_0" shape="256.15,362.08 263.05,360.93 270.52,355.47 263.02,350.00 259.29,348.46 256.58,346.06 253.30,342.58 249.45,338.02 245.04,332.37 236.67,338.72 239.29,343.07 240.49,347.37 240.29,351.62 238.67,355.82 235.64,359.96 231.20,364.06 237.74,372.28 242.24,368.76 246.46,365.66 250.17,363.21 253.17,361.64 255.24,361.19">
        <request index="0" response="000000" foes="001000" cont="0"/>
        <request index="1" response="000000" foes="111000" cont="0"/>
        <request index="2" response="000000" foes="000000" cont="0"/>
        <request index="3" response="000011" foes="100011" cont="0"/>
        <request index="4" response="000010" foes="000010" cont="0"/>
        <request index="5" response="001010" foes="001010" cont="0"/>
    </junction>
    <junction id="36" type="dead_end" x="272.14" y="351.99" incLanes="17711_0 16367_0" intLanes="" shape="272.14,351.99 272.53,355.47 271.92,348.50"/>
    <junction id="37" type="priority" x="266.44" y="417.43" incLanes="13000_0" intLanes=":37_0_0 :37_0_1 :37_2_0 :37_3_0" shape="275.86,426.24 275.60,422.75 273.29,422.13 272.39,421.21 271.66,419.88 271.11,418.15 270.73,416.01 263.79,416.93 263.62,419.15 263.16,419.95 262.46,420.54 261.50,420.92 260.29,421.09 260.66,428.08">
        <request index="0" response="0000" foes="0000" cont="0"/>
        <request index="1" response="0000" foes="0000" cont="0"/>
        <request index="2" response="0000" foes="0000" cont="0"/>
        <request index="3" response="0000" foes="0000" cont="0"/>
    </junction>
    <junction id="5" type="priority" x="228.14" y="467.62" incLanes="12113_0" intLanes=":5_0_0" shape="227.51,470.19 230.61,468.57 228.90,465.09 225.72,466.55" rightOfWay="edgePriority">
        <request index="0" response="0" foes="0" cont="0"/>
    </junction>
    <junction id="8" type="priority" x="250.78" y="474.87" incLanes="17049_0" intLanes=":8_0_0" shape="253.12,475.58 251.44,472.51 248.42,474.11 250.09,477.19" rightOfWay="edgePriority">
        <request index="0" response="0" foes="0" cont="0"/>
    </junction>

    <connection from="12113" to="17049" fromLane="0" toLane="0" contPos="-4.00" via=":5_0_0" dir="r" state="M"/>
    <connection from="12115" to="17067" fromLane="0" toLane="0" contPos="-4.00" via=":13_0_0" dir="s" state="M"/>
    <connection from="12424" to="12862" fromLane="0" toLane="0" contPos="-4.00" shape="232.29,365.43 235.34,362.78 237.71,360.26 239.45,357.96 240.62,355.97 241.54,353.85 242.15,351.63 242.41,349.34 242.29,347.04 241.81,344.78 241.03,342.61 239.70,340.05 238.07,337.66" via=":35_4_0" dir="r" state="m"/>
    <connection from="12424" to="16367" fromLane="1" toLane="0" contPos="-4.00" via=":35_5_0" dir="s" state="m"/>
    <connection from="12568" to="13178" fromLane="0" toLane="0" contPos="-4.00" shape="193.52,403.48 184.71,410.43 168.39,422.61 155.42,432.39 146.71,439.35" via=":32_2_0" dir="s" state="m"/>
    <connection from="12569" to="12424" fromLane="0" toLane="0" contPos="-4.00" via=":31_0_0" dir="s" state="M"/>
    <connection from="12569" to="12424" fromLane="0" toLane="1" contPos="-4.00" via=":31_0_1" dir="s" state="M"/>
    <connection from="12584" to="16366" fromLane="0" toLane="0" contPos="-4.00" shape="260.35,377.07 259.60,373.71 258.72,371.09 257.84,369.21 256.70,367.48 255.77,366.45 254.70,365.59 253.49,364.93 252.17,364.51 250.80,364.34 248.73,364.47 246.72,364.97 244.16,366.01 241.14,367.69 237.74,370.06 236.65,370.91" via=":35_0_0" dir="r" state="M"/>
    <connection from="12584" to="12862" fromLane="0" toLane="0" contPos="-4.00" shape="260.35,377.07 259.65,374.12 258.33,370.29 256.27,365.67 253.41,360.30 249.47,353.81 244.37,346.25 238.07,337.66" via=":35_1_0" dir="s" state="M"/>
    <connection from="12584" to="17711" fromLane="1" toLane="0" contPos="-4.00" via=":35_2_0" dir="l" state="M"/>
    <connection from="12754" to="12113" fromLane="0" toLane="0" contPos="-4.00" shape="233.25,427.66 229.37,427.98 226.19,428.58 223.72,429.36 221.96,430.19 220.35,431.27 218.98,432.64 218.25,433.71 217.48,435.49 217.10,437.39 217.05,439.33 217.39,441.90 218.05,444.40 219.19,447.44" via=":34_0_0" dir="r" state="M"/>
    <connection from="12754" to="13517" fromLane="0" toLane="0" contPos="-4.00" shape="233.25,427.66 216.12,428.45 199.00,429.24" via=":34_1_0" dir="s" state="M"/>
    <connection from="12754" to="13517" fromLane="1" toLane="1" contPos="-4.00" shape="233.09,424.16 215.96,424.95 198.82,425.75" via=":34_1_1" dir="s" state="M"/>