<routes>
	<vehicle depart="0.1" departLane="0" departPos="31.34913399693403" departSpeed="1.9422424" id="346" type="bus">
		<route edges="1144 1124"/>
	</vehicle>
	<vehicle depart="0.1" departLane="0" departPos="61.504462426904055" departSpeed="3.5273356" id="313" type="passenger">
		<route edges="1144 1120 1117"/>
	</vehicle>
	<vehicle depart="0.1" departLane="0" departPos="6.158269981646413" departSpeed="15.610214" id="314" type="passenger">
		<route edges=":64_4 1124 1127 1130"/>
	</vehicle>
	<vehicle depart="0.1" departLane="0" departPos="50.36785797683027" departSpeed="1.1208113" id="319" type="passenger">
		<route edges="1144 1124"/>
	</vehicle>
	<vehicle depart="0.1" departLane="0" departPos="15.148998771441512" departSpeed="0.078001726" id="335" type="passenger">
		<route edges=":64_3 1145"/>
	</vehicle>
	<vehicle depart="0.1" departLane="0" departPos="43.09382721639326" departSpeed="0.75999391" id="339" type="passenger">
		<route edges="1144 1124"/>
	</vehicle>
	<vehicle depart="0.1" departLane="0" departPos="8.24322028735822" departSpeed="12.741354" id="341" type="passenger">
		<route edges=":64_0 1145"/>
	</vehicle>
	<vehicle depart="0.1" departLane="0" departPos="33.46317979070329" departSpeed="10.785952" id="352" type="passenger">
		<route edges=":62_0 1121 1124"/>
	</vehicle>
	<vehicle depart="0.1" departLane="0" departPos="16.61927444569158" departSpeed="12.85872" id="355" type="passenger">
		<route edges=":62_0 1121 1145"/>
	</vehicle>
</routes>
