<!-- generated on 2020-12-18 16:19:34.517806 by ipykernel_launcher.py v1_2_0+5214-53edc58fcd
-->
<edges>
	<edge from="1" function="normal" id="5" length="226.23596410951797" numLanes="2" priority="1" speed="36.11111111111111" spreadType="center" to="2">
		<lane allow="moped bicycle pedestrian custom1 trailer evehicle rail_urban ship private truck vip custom2 authority delivery rail_electric taxi tram army hov coach motorcycle passenger bus rail emergency" index="0" length="226.23596410951797" shape="-110.05195,55.820750000000004 -11.540299999999998,0.22275 86.9713,-55.375249999999994" speed="36.11111111111111" width="3.500000235714278"/>
		<lane allow="moped bicycle pedestrian custom1 trailer evehicle rail_urban ship private truck vip custom2 authority delivery rail_electric taxi tram army hov coach motorcycle passenger bus rail emergency" index="1" length="226.23596410951797" shape="-108.33255,58.86935 -9.819949999999999,3.2707499999999996 88.69265,-52.327799999999996" speed="36.11111111111111" width="3.4999735227569935"/>
	</edge>
	<edge from="3" function="normal" id="8" length="226.2427488123092" numLanes="2" priority="1" speed="36.11111111111111" spreadType="center" to="4">
		<lane allow="moped bicycle pedestrian custom1 trailer evehicle rail_urban ship private truck vip custom2 authority delivery rail_electric taxi tram army hov coach motorcycle passenger bus rail emergency" index="0" length="226.2427488123092" shape="92.1375,-46.2341 -6.379049999999999,9.3667 -104.89555,64.96745" speed="36.11111111111111" width="3.4999502853612023"/>
		<lane allow="moped bicycle pedestrian custom1 trailer evehicle rail_urban ship private truck vip custom2 authority delivery rail_electric taxi tram army hov coach motorcycle passenger bus rail emergency" index="1" length="226.2427488123092" shape="90.4151,-49.280950000000004 -8.099499999999999,6.3187 -106.61404999999999,61.918400000000005" speed="36.11111111111111" width="3.4999490353432248"/>
	</edge>
</edges>
