<routes>
	<vehicle depart="0.1" departLane="0" departPos="58.84514159725857" departSpeed="6.9057592" id="311" type="bicycle">
		<route edges="204 360"/>
	</vehicle>
	<vehicle depart="0.1" departLane="0" departPos="65.33833632566044" departSpeed="6.8823882" id="313" type="bicycle">
		<route edges="203 200 135"/>
	</vehicle>
	<vehicle depart="0.1" departLane="0" departPos="6.990793963492421" departSpeed="2.4573819" id="332" type="bicycle">
		<route edges="784 204"/>
	</vehicle>
	<vehicle depart="0.1" departLane="0" departPos="9.007648531862277" departSpeed="0.0" id="31" type="passenger">
		<route edges="357 203"/>
	</vehicle>
	<vehicle depart="0.1" departLane="0" departPos="35.447726833046154" departSpeed="12.866879" id="33" type="passenger">
		<route edges="135"/>
	</vehicle>
	<vehicle depart="0.1" departLane="0" departPos="90.47248749749431" departSpeed="0.0" id="34" type="passenger">
		<route edges="204 360"/>
	</vehicle>
	<vehicle depart="0.1" departLane="0" departPos="38.2706634077479" departSpeed="0.0" id="36" type="passenger">
		<route edges="200 135"/>
	</vehicle>
	<vehicle depart="0.1" departLane="0" departPos="65.55920962611992" departSpeed="5.6942006" id="37" type="passenger">
		<route edges="204 360"/>
	</vehicle>
	<vehicle depart="0.1" departLane="0" departPos="50.106109457548804" departSpeed="0.0" id="38" type="passenger">
		<route edges="784 204"/>
	</vehicle>
	<vehicle depart="0.1" departLane="0" departPos="42.872691314083646" departSpeed="0.0021171199" id="314" type="passenger">
		<route edges="784 204"/>
	</vehicle>
	<vehicle depart="0.1" departLane="0" departPos="36.03360848048121" departSpeed="0.017359267" id="316" type="passenger">
		<route edges="784 204"/>
	</vehicle>
	<vehicle depart="0.1" departLane="0" departPos="21.089091633129076" departSpeed="11.405308" id="317" type="passenger">
		<route edges="785"/>
	</vehicle>
	<vehicle depart="0.1" departLane="0" departPos="13.650047898543471" departSpeed="11.906682" id="320" type="passenger">
		<route edges=":25_1 200 135"/>
	</vehicle>
	<vehicle depart="0.1" departLane="0" departPos="24.31052732706446" departSpeed="0.1964835" id="323" type="passenger">
		<route edges="784 204"/>
	</vehicle>
	<vehicle depart="0.1" departLane="0" departPos="38.308435523427605" departSpeed="0.0" id="324" type="passenger">
		<route edges="201 785"/>
	</vehicle>
	<vehicle depart="0.1" departLane="0" departPos="30.996720866500173" departSpeed="0.16426348" id="326" type="passenger">
		<route edges="201 785"/>
	</vehicle>
	<vehicle depart="0.1" departLane="0" departPos="38.22252650502225" departSpeed="13.429744" id="327" type="passenger">
		<route edges="203 200"/>
	</vehicle>
	<vehicle depart="0.1" departLane="0" departPos="11.35708115739498" departSpeed="8.9953429" id="328" type="passenger">
		<route edges="203 200"/>
	</vehicle>
	<vehicle depart="0.1" departLane="0" departPos="11.987222692299648" departSpeed="0.67360336" id="330" type="passenger">
		<route edges="784 204"/>
	</vehicle>
	<vehicle depart="0.1" departLane="0" departPos="2.5" departSpeed="7.2959478" id="331" type="passenger">
		<route edges=":26_4 203 200"/>
	</vehicle>
	<vehicle depart="0.1" departLane="0" departPos="11.711750644624754" departSpeed="3.8441955" id="333" type="passenger">
		<route edges="133 135"/>
	</vehicle>
	<vehicle depart="0.1" departLane="0" departPos="28.990214191599858" departSpeed="0.074462872" id="319" type="motorcycle">
		<route edges="784 204"/>
	</vehicle>
	<vehicle depart="0.1" departLane="0" departPos="17.05133676856401" departSpeed="0.44008287" id="325" type="motorcycle">
		<route edges="784 204"/>
	</vehicle>
	<vehicle depart="0.1" departLane="0" departPos="25.530115126109834" departSpeed="17.028063" id="334" type="motorcycle">
		<route edges="359 1539"/>
	</vehicle>
	<vehicle depart="0.1" departLane="0" departPos="31.230229495426574" departSpeed="0.066170146" id="30" type="truck">
		<route edges="200 135"/>
	</vehicle>
	<vehicle depart="0.1" departLane="0" departPos="83.41140412773674" departSpeed="0.014421511" id="310" type="truck">
		<route edges="204 360"/>
	</vehicle>
	<vehicle depart="0.1" departLane="0" departPos="15.27503176762829" departSpeed="5.2956836" id="329" type="truck">
		<route edges=":28_1 135"/>
	</vehicle>
</routes>
