<!-- generated on 2020-12-18 15:54:59.227671 by ipykernel_launcher.py v1_2_0+5214-53edc58fcd
-->
<nodes>
	<node id="1" type="from" x="-26.87452" y="39.03541"/>
	<node id="2" type="to" x="22.23731" y="-5.31518"/>
	<node id="3" type="to" x="111.31895000000002" y="-85.666675"/>
	<node id="4" type="from" x="-35.74465" y="29.33995"/>
</nodes>
