<?xml version="1.0" encoding="UTF-8"?>

<!-- generated on Fri Dec 18 15:54:59 2020 by Eclipse SUMO netconvert Version 1.8.0
<configuration xmlns:xsi="http://www.w3.org/2001/XMLSchema-instance" xsi:noNamespaceSchemaLocation="http://sumo.dlr.de/xsd/netconvertConfiguration.xsd">

    <input>
        <node-files value="./converted_scenarios/NGSIM/US101/USA_US101-25_2_I-1-1/nodes.net.xml"/>
        <edge-files value="./converted_scenarios/NGSIM/US101/USA_US101-25_2_I-1-1/edges.net.xml"/>
        <connection-files value="./converted_scenarios/NGSIM/US101/USA_US101-25_2_I-1-1/_connections.net.xml"/>
        <tllogic-files value="./converted_scenarios/NGSIM/US101/USA_US101-25_2_I-1-1/_tll.net.xml"/>
    </input>

    <output>
        <output-file value="./converted_scenarios/NGSIM/US101/USA_US101-25_2_I-1-1/USA_US101-25_2_I-1-1.net.xml"/>
    </output>

    <processing>
        <plain.extend-edge-shape value="true"/>
        <geometry.remove.keep-edges.explicit value="true"/>
        <geometry.avoid-overlap value="true"/>
        <offset.disable-normalization value="true"/>
    </processing>

    <junctions>
        <no-turnarounds value="true"/>
        <junctions.internal-link-detail value="20"/>
    </junctions>

    <report>
        <aggregate-warnings value="5"/>
    </report>

    <random_number>
        <seed value="1234"/>
    </random_number>

</configuration>
-->

<net version="1.6" junctionCornerDetail="5" junctionLinkDetail="20" limitTurnSpeed="5.50" xmlns:xsi="http://www.w3.org/2001/XMLSchema-instance" xsi:noNamespaceSchemaLocation="http://sumo.dlr.de/xsd/net_file.xsd">

    <location netOffset="0.00,0.00" convBoundary="-35.74,-85.67,111.32,39.04" origBoundary="-35.74,-92.25,116.90,44.06" projParameter="!"/>

    <edge id=":2_0" function="internal">
        <lane id=":2_0_0" index="0" disallow="bus rail_fast" speed="36.11" length="5.26" width="3.68" shape="14.17,-12.28 18.15,-15.73"/>
    </edge>
    <edge id=":2_1" function="internal">
        <lane id=":2_1_0" index="0" disallow="bus truck rail_fast" speed="36.11" length="5.25" width="3.50" shape="16.63,-9.45 20.58,-12.93"/>
        <lane id=":2_1_1" index="1" disallow="bus truck rail_fast" speed="36.11" length="5.25" width="3.22" shape="18.92,-6.82 22.82,-10.35"/>
        <lane id=":2_1_2" index="2" disallow="bus rail_fast" speed="36.11" length="5.25" width="3.12" shape="21.11,-4.30 25.04,-7.80"/>
        <lane id=":2_1_3" index="3" disallow="bus truck rail_fast" speed="36.11" length="5.25" width="3.27" shape="23.30,-1.78 27.28,-5.21"/>
        <lane id=":2_1_4" index="4" disallow="bus truck rail_fast" speed="36.11" length="5.25" width="3.48" shape="25.52,0.77 29.54,-2.62"/>
    </edge>

    <edge id="11" from="2" to="3" priority="1" spreadType="center" length="119.95">
        <lane id="11_0" index="0" disallow="bus rail_fast" speed="36.11" length="119.95" width="3.68" acceleration="1" customShape="1" shape="18.15,-15.73 20.86,-18.08 21.58,-18.72 24.28,-21.10 25.01,-21.75 27.72,-24.14 28.45,-24.78 31.12,-27.10 31.84,-27.74 32.57,-28.37 34.57,-30.12 35.29,-30.76 37.98,-33.12 38.70,-33.77 41.45,-36.17 42.18,-36.81 44.75,-39.04 45.47,-39.69 48.19,-42.02 48.91,-42.67 51.75,-45.18 52.48,-45.82 55.14,-48.18 55.86,-48.82 58.67,-51.24 59.39,-51.89 62.02,-54.19 62.75,-54.84 65.46,-57.21 66.10,-57.78 66.18,-57.86 69.01,-60.24 69.73,-60.88 72.35,-63.24 73.07,-63.89 75.75,-66.20 76.47,-66.84 79.26,-69.29 79.99,-69.94 82.50,-72.10 83.22,-72.75 85.99,-75.17 86.72,-75.82 89.41,-78.08 90.14,-78.72 92.88,-81.18 93.60,-81.82 94.26,-82.40 96.34,-84.20 97.06,-84.84 99.71,-87.13 100.44,-87.77 103.13,-90.10 103.86,-90.74 105.60,-92.26"/>
        <lane id="11_1" index="1" disallow="bus truck rail_fast" speed="36.11" length="119.95" width="3.50" customShape="1" shape="20.58,-12.93 20.67,-13.02 21.30,-13.59 23.15,-15.11 23.80,-15.67 23.92,-15.76 24.51,-16.26 24.69,-16.42 26.78,-18.32 27.50,-18.98 27.60,-19.06 30.16,-21.32 30.84,-21.92 33.57,-24.29 34.23,-24.88 34.77,-25.35 37.04,-27.39 37.68,-27.98 43.83,-33.28 44.51,-33.87 44.61,-33.95 45.52,-34.72 47.25,-36.27 47.96,-36.93 48.48,-37.38 50.63,-39.22 51.28,-39.80 54.17,-42.33 54.86,-42.95 56.52,-44.41 57.63,-45.42 58.34,-46.08 59.49,-47.10 61.09,-48.46 61.73,-49.03 64.43,-51.37 65.10,-51.96 67.49,-54.03 67.90,-54.39 68.63,-55.04 70.57,-56.67 71.47,-57.42 72.13,-58.02 74.73,-60.36 75.47,-61.02 78.20,-63.39 78.35,-63.52 78.85,-63.97 81.40,-66.21 81.73,-66.50 82.45,-67.15 84.95,-69.32 85.64,-69.95 88.43,-72.42 89.15,-73.07 90.10,-73.87 91.82,-75.32 92.48,-75.90 92.94,-76.31 95.19,-78.30 95.92,-78.95 96.01,-79.03 98.74,-81.38 99.40,-81.95 99.49,-82.03 100.91,-83.25 102.16,-84.32 102.82,-84.91 102.90,-84.98 103.91,-85.85 105.59,-87.31 106.31,-87.96 108.03,-89.46"/>
        <lane id="11_2" index="2" disallow="bus truck rail_fast" speed="36.11" length="119.95" width="3.22" customShape="1" shape="22.82,-10.35 23.41,-10.87 23.57,-11.00 26.94,-13.77 29.46,-16.01 29.57,-16.11 29.94,-16.45 32.56,-18.82 37.02,-22.66 39.89,-25.22 40.01,-25.32 40.65,-25.87 40.73,-25.94 43.62,-28.50 47.81,-32.06 50.65,-34.60 50.75,-34.68 51.76,-35.55 54.71,-38.20 58.81,-41.73 61.67,-44.27 61.79,-44.37 62.90,-45.32 65.86,-47.97 69.82,-51.44 72.80,-54.06 73.92,-55.05 76.90,-57.64 80.71,-60.97 83.71,-63.58 84.81,-64.56 87.78,-67.18 92.31,-71.18 95.32,-73.81 95.91,-74.32 98.92,-76.90 103.20,-80.59 106.19,-83.18 110.32,-86.81"/>
        <lane id="11_3" index="3" disallow="bus rail_fast" speed="36.11" length="119.95" width="3.12" customShape="1" shape="25.04,-7.80 26.68,-9.22 29.65,-11.85 31.78,-13.65 34.62,-16.17 34.74,-16.27 37.75,-18.84 40.71,-21.47 42.85,-23.32 45.71,-25.91 45.80,-25.99 48.86,-28.64 51.82,-31.28 53.86,-33.01 56.72,-35.52 56.85,-35.63 59.99,-38.27 62.95,-40.91 65.11,-42.77 67.97,-45.34 71.22,-48.20 74.15,-50.87 76.03,-52.53 79.06,-55.15 82.28,-57.94 85.28,-60.55 87.06,-62.11 90.03,-64.73 93.22,-67.56 96.21,-70.16 98.09,-71.83 101.06,-74.45 104.46,-77.44 107.46,-80.04 112.46,-84.35"/>
        <lane id="11_4" index="4" disallow="bus truck rail_fast" speed="36.11" length="119.95" width="3.27" customShape="1" shape="27.28,-5.21 28.76,-6.49 28.95,-6.67 31.63,-9.16 31.81,-9.32 39.95,-16.26 40.12,-16.41 42.91,-19.01 43.07,-19.15 51.08,-26.03 53.93,-28.69 62.18,-35.74 62.30,-35.85 65.12,-38.47 65.25,-38.59 73.40,-45.59 73.51,-45.69 76.25,-48.25 84.22,-55.16 84.51,-55.41 87.21,-57.76 87.50,-58.01 95.28,-64.88 95.40,-64.99 98.31,-67.52 98.44,-67.63 106.55,-74.87 106.63,-74.94 109.56,-77.49 114.63,-81.87"/>
        <lane id="11_5" index="5" disallow="bus truck rail_fast" speed="36.11" length="119.95" width="3.48" customShape="1" shape="29.54,-2.62 31.02,-3.87 31.25,-4.07 31.38,-4.19 33.99,-6.62 34.34,-6.93 42.41,-13.86 42.65,-14.07 42.76,-14.17 45.37,-16.60 45.73,-16.92 53.37,-23.35 53.60,-23.56 53.73,-23.67 56.34,-26.10 56.68,-26.41 64.57,-33.34 64.83,-33.57 64.90,-33.64 67.51,-36.07 67.87,-36.39 75.64,-42.97 75.87,-43.18 75.99,-43.29 78.60,-45.72 78.94,-46.03 86.46,-52.58 86.85,-52.92 89.45,-55.18 89.83,-55.51 97.60,-62.30 97.99,-62.64 100.59,-64.90 100.93,-65.20 108.87,-72.28 109.24,-72.60 111.84,-74.86 112.23,-75.20 116.90,-79.26"/>
    </edge>
    <edge id="12" from="4" to="2" priority="1" spreadType="center" length="66.49">
        <lane id="12_0" index="0" disallow="bus rail_fast" speed="36.11" length="66.49" width="3.64" customShape="1" shape="-35.74,29.34 -35.17,28.88 -30.04,24.71 -22.32,18.42 -20.67,17.06 -12.12,9.95 -0.27,0.17 0.05,-0.10 5.91,-5.08 9.37,-8.08 14.17,-12.28"/>
    </edge>
    <edge id="15" from="1" to="2" priority="1" spreadType="center" length="66.02">
        <lane id="15_0" index="0" disallow="bus truck rail_fast" speed="36.11" length="66.02" width="3.54" customShape="1" shape="-31.52,34.05 -28.76,31.47 -25.24,28.22 -22.33,25.53 -14.52,18.41 -13.94,17.87 -11.58,15.70 -4.27,9.09 -3.47,8.35 -0.55,5.64 2.51,2.89 7.32,-1.28 10.27,-3.93 11.82,-5.27 16.63,-9.45"/>
        <lane id="15_1" index="1" disallow="bus rail_fast" speed="36.11" length="66.02" width="3.25" customShape="1" shape="-29.15,36.59 -25.00,32.79 -22.85,30.79 -22.10,30.09 -19.97,28.13 -14.32,23.00 -12.11,20.98 -11.42,20.33 -9.24,18.35 -3.11,12.83 -1.04,10.93 -0.22,10.16 1.82,8.31 7.64,3.19 9.68,1.35 10.53,0.56 12.53,-1.25 18.64,-6.57 18.92,-6.82"/>
        <lane id="15_2" index="2" disallow="rail_fast" speed="36.11" length="66.02" width="3.19" customShape="1" shape="-26.88,39.03 -25.62,37.84 -22.76,35.24 -19.85,32.58 -17.24,30.21 -14.33,27.52 -12.08,25.48 -9.18,22.81 -6.45,20.35 -3.53,17.68 -0.88,15.31 2.02,12.66 4.58,10.36 7.51,7.70 9.78,5.73 12.70,3.13 15.47,0.74 18.41,-1.91 20.84,-4.05 21.11,-4.30"/>
        <lane id="15_3" index="3" disallow="bus truck rail_fast" speed="36.11" length="66.02" width="3.21" customShape="1" shape="-24.62,41.50 -23.40,40.33 -23.22,40.17 -15.23,32.91 -14.97,32.67 -12.35,30.23 -12.09,29.99 -4.38,22.96 -4.21,22.80 -1.50,20.27 -1.37,20.15 6.64,12.98 6.82,12.82 9.52,10.30 9.64,10.19 17.68,3.27 17.76,3.20 20.62,0.54 20.73,0.43 23.30,-1.78"/>
        <lane id="15_4" index="4" disallow="rail_fast" speed="36.11" length="66.02" width="3.48" customShape="1" shape="-22.28,44.06 -20.86,42.74 -20.56,42.46 -12.91,35.46 -12.62,35.20 -10.00,32.75 -9.70,32.47 -2.08,25.48 -1.79,25.21 0.83,22.77 1.15,22.48 8.93,15.54 9.22,15.27 11.86,12.81 12.20,12.51 20.05,5.65 20.34,5.39 22.99,2.92 23.35,2.60 25.52,0.77"/>
    </edge>

    <junction id="1" type="dead_end" x="-26.87" y="39.04" incLanes="" intLanes="" shape="-21.04,45.29 -32.73,32.76"/>
    <junction id="2" type="priority" x="22.24" y="-5.32" incLanes="12_0 15_0 15_1 15_2 15_3 15_4" intLanes=":2_0_0 :2_1_0 :2_1_1 :2_1_2 :2_1_3 :2_1_4" shape="30.68,-1.30 16.94,-17.12 12.97,-13.65 15.37,-10.91 15.47,-10.79 26.66,2.08">
        <request index="0" response="000000" foes="000000" cont="0"/>
        <request index="1" response="000000" foes="000000" cont="0"/>
        <request index="2" response="000000" foes="000000" cont="0"/>
        <request index="3" response="000000" foes="000000" cont="0"/>
        <request index="4" response="000000" foes="000000" cont="0"/>
        <request index="5" response="000000" foes="000000" cont="0"/>
    </junction>
    <junction id="3" type="dead_end" x="111.32" y="-85.67" incLanes="11_0 11_1 11_2 11_3 11_4 11_5" intLanes="" shape="104.40,-93.65 118.02,-77.94"/>
    <junction id="4" type="dead_end" x="-35.74" y="29.34" incLanes="" intLanes="" shape="-34.61,30.76 -36.88,27.92"/>

    <connection from="12" to="11" fromLane="0" toLane="0" contPos="-4.00" via=":2_0_0" dir="s" state="M"/>
    <connection from="15" to="11" fromLane="0" toLane="1" contPos="-4.00" via=":2_1_0" dir="s" state="M"/>
    <connection from="15" to="11" fromLane="1" toLane="2" contPos="-4.00" via=":2_1_1" dir="s" state="M"/>
    <connection from="15" to="11" fromLane="2" toLane="3" contPos="-4.00" via=":2_1_2" dir="s" state="M"/>
    <connection from="15" to="11" fromLane="3" toLane="4" contPos="-4.00" via=":2_1_3" dir="s" state="M"/>
    <connection from="15" to="11" fromLane="4" toLane="5" contPos="-4.00" via=":2_1_4" dir="s" state="M"/>

    <connection from=":2_0" to="11" fromLane="0" toLane="0" dir="s" state="M"/>
    <connection from=":2_1" to="11" fromLane="0" toLane="1" dir="s" state="M"/>
    <connection from=":2_1" to="11" fromLane="1" toLane="2" dir="s" state="M"/>
    <connection from=":2_1" to="11" fromLane="2" toLane="3" dir="s" state="M"/>
    <connection from=":2_1" to="11" fromLane="3" toLane="4" dir="s" state="M"/>
    <connection from=":2_1" to="11" fromLane="4" toLane="5" dir="s" state="M"/>

</net>
