<routes>
	<vehicle depart="0.1" departLane="5" departPos="113.39264912876382" departSpeed="14.0879" id="427" type="passenger">
		<route edges="11"/>
	</vehicle>
	<vehicle depart="0.1" departLane="4" departPos="107.36417012642178" departSpeed="15.0876" id="431" type="passenger">
		<route edges="11"/>
	</vehicle>
	<vehicle depart="0.1" departLane="0" departPos="112.86854524156128" departSpeed="14.3408" id="434" type="passenger">
		<route edges="11"/>
	</vehicle>
	<vehicle depart="0.1" departLane="2" departPos="103.95198398924485" departSpeed="15.24" id="435" type="passenger">
		<route edges="11"/>
	</vehicle>
	<vehicle depart="0.1" departLane="3" departPos="113.12510631076468" departSpeed="15.2583" id="436" type="passenger">
		<route edges="11"/>
	</vehicle>
	<vehicle depart="0.1" departLane="2" departPos="61.86821890233003" departSpeed="14.3408" id="438" type="passenger">
		<route edges="11"/>
	</vehicle>
	<vehicle depart="0.1" departLane="3" departPos="77.6033606473906" departSpeed="13.6886" id="439" type="passenger">
		<route edges="11"/>
	</vehicle>
	<vehicle depart="0.1" departLane="4" departPos="83.64857909135424" departSpeed="13.7008" id="440" type="passenger">
		<route edges="11"/>
	</vehicle>
	<vehicle depart="0.1" departLane="0" departPos="73.05984890417754" departSpeed="16.0447" id="441" type="passenger">
		<route edges="11 11"/>
	</vehicle>
	<vehicle depart="0.1" departLane="5" departPos="69.57315843898773" departSpeed="12.2347" id="442" type="passenger">
		<route edges="11"/>
	</vehicle>
	<vehicle depart="0.1" departLane="3" departPos="60.106902124895406" departSpeed="14.6213" id="443" type="passenger">
		<route edges="11"/>
	</vehicle>
	<vehicle depart="0.1" departLane="1" departPos="51.7826103911253" departSpeed="15.9197" id="445" type="passenger">
		<route edges="11"/>
	</vehicle>
	<vehicle depart="0.1" departLane="4" departPos="47.108384061830364" departSpeed="12.701" id="446" type="passenger">
		<route edges="11"/>
	</vehicle>
	<vehicle depart="0.1" departLane="3" departPos="20.65452959937303" departSpeed="13.2375" id="447" type="passenger">
		<route edges="11"/>
	</vehicle>
	<vehicle depart="0.1" departLane="1" departPos="18.74768143992182" departSpeed="13.716" id="449" type="passenger">
		<route edges="11"/>
	</vehicle>
	<vehicle depart="0.1" departLane="4" departPos="25.118124739835068" departSpeed="12.192" id="450" type="passenger">
		<route edges="11"/>
	</vehicle>
	<vehicle depart="0.1" departLane="5" departPos="35.94504172052619" departSpeed="8.6746" id="451" type="passenger">
		<route edges="11"/>
	</vehicle>
	<vehicle depart="0.1" departLane="4" departPos="12.099532888268024" departSpeed="13.6764" id="456" type="passenger">
		<route edges="11"/>
	</vehicle>
	<vehicle depart="0.1" departLane="2" departPos="59.30854932422661" departSpeed="12.256" id="457" type="passenger">
		<route edges="15 11"/>
	</vehicle>
	<vehicle depart="0.1" departLane="5" departPos="15.49884184398217" departSpeed="6.0869" id="458" type="passenger">
		<route edges="11"/>
	</vehicle>
	<vehicle depart="0.1" departLane="1" departPos="55.04321469316711" departSpeed="11.1831" id="462" type="passenger">
		<route edges="15 11"/>
	</vehicle>
	<vehicle depart="0.1" departLane="1" departPos="43.465683383014365" departSpeed="10.5217" id="464" type="passenger">
		<route edges="15 11"/>
	</vehicle>
	<vehicle depart="0.1" departLane="0" departPos="27.21153686063592" departSpeed="11.5854" id="465" type="passenger">
		<route edges="15 11 11"/>
	</vehicle>
	<vehicle depart="0.1" departLane="2" departPos="31.67422284212651" departSpeed="13.4508" id="467" type="passenger">
		<route edges="15 11"/>
	</vehicle>
	<vehicle depart="0.1" departLane="5" departPos="0" departSpeed="4.7945" id="468" type="passenger">
		<route edges="11"/>
	</vehicle>
	<vehicle depart="0.1" departLane="0" departPos="43.23503474296427" departSpeed="12.1798" id="469" type="passenger">
		<route edges="15 11"/>
	</vehicle>
	<vehicle depart="0.1" departLane="3" departPos="38.455046384819" departSpeed="10.668" id="472" type="passenger">
		<route edges="15 11"/>
	</vehicle>
	<vehicle depart="0.1" departLane="0" departPos="0" departSpeed="12.1676" id="473" type="passenger">
		<route edges="15 11 11"/>
	</vehicle>
	<vehicle depart="0.1" departLane="4" departPos="54.9016367091854" departSpeed="3.8953" id="475" type="passenger">
		<route edges="15 11"/>
	</vehicle>
	<vehicle depart="0.1" departLane="1" departPos="27.6090071069745" departSpeed="11.8659" id="476" type="passenger">
		<route edges="15 11"/>
	</vehicle>
	<vehicle depart="0.1" departLane="3" departPos="21.387448699103857" departSpeed="9.6835" id="477" type="passenger">
		<route edges="15 11"/>
	</vehicle>
	<vehicle depart="0.1" departLane="1" departPos="0" departSpeed="10.3723" id="481" type="passenger">
		<route edges="15 11"/>
	</vehicle>
	<vehicle depart="0.1" departLane="3" departPos="2.7085971016888735" departSpeed="10.7351" id="484" type="passenger">
		<route edges="15 11"/>
	</vehicle>
	<vehicle depart="0.1" departLane="4" departPos="40.666563741694524" departSpeed="4.569" id="485" type="passenger">
		<route edges="15 11"/>
	</vehicle>
	<vehicle depart="0.1" departLane="4" departPos="25.74915277951829" departSpeed="1.5179" id="493" type="passenger">
		<route edges="15 11"/>
	</vehicle>
	<vehicle depart="0.1" departLane="4" departPos="16.286849649561127" departSpeed="1.5331" id="494" type="passenger">
		<route edges="15 11"/>
	</vehicle>
	<vehicle depart="0.1" departLane="4" departPos="5.806687026472544" departSpeed="0.0" id="507" type="passenger">
		<route edges="15 11"/>
	</vehicle>
</routes>
