<routes>
	<vehicle depart="0.1" departLane="0" departPos="51.91272291904944" departSpeed="1.3725155" id="329" type="bus">
		<route edges="15694 15625"/>
	</vehicle>
	<vehicle depart="0.1" departLane="0" departPos="2.5" departSpeed="0.57584405" id="31" type="passenger">
		<route edges=":63_6 15625"/>
	</vehicle>
	<vehicle depart="0.1" departLane="0" departPos="45.155844973777874" departSpeed="0.078117348" id="310" type="passenger">
		<route edges="15692 15695"/>
	</vehicle>
	<vehicle depart="0.1" departLane="0" departPos="37.020816929875835" departSpeed="0.26278479" id="315" type="passenger">
		<route edges="15692 15695"/>
	</vehicle>
	<vehicle depart="0.1" departLane="0" departPos="17.200193235357297" departSpeed="1.0036329" id="321" type="passenger">
		<route edges="15692 15695"/>
	</vehicle>
	<vehicle depart="0.1" departLane="0" departPos="12.293168573144902" departSpeed="1.0862601" id="322" type="passenger">
		<route edges="15694 15625"/>
	</vehicle>
	<vehicle depart="0.1" departLane="0" departPos="25.058152201588143" departSpeed="1.4360608" id="339" type="passenger">
		<route edges="15694 15625"/>
	</vehicle>
	<vehicle depart="0.1" departLane="0" departPos="19.47169371901998" departSpeed="14.120097" id="366" type="passenger">
		<route edges=":60_10 15626 15691"/>
	</vehicle>
	<vehicle depart="0.1" departLane="0" departPos="21.542600388188163" departSpeed="0.84305442" id="369" type="passenger">
		<route edges=":63_4 15625"/>
	</vehicle>
	<vehicle depart="0.1" departLane="0" departPos="27.537258878211784" departSpeed="0.30392474" id="374" type="passenger">
		<route edges="15628 15625"/>
	</vehicle>
</routes>
