<routes>
	<vehicle depart="0.1" departLane="0" departPos="27.706709101556964" departSpeed="0.0" id="31" type="passenger">
		<route edges="31181 31640"/>
	</vehicle>
	<vehicle depart="0.1" departLane="0" departPos="15.284106119985863" departSpeed="2.2081845" id="310" type="passenger">
		<route edges="31182 31185"/>
	</vehicle>
	<vehicle depart="0.1" departLane="0" departPos="6.350591957772721" departSpeed="1.8678442" id="313" type="passenger">
		<route edges="31182 31185"/>
	</vehicle>
	<vehicle depart="0.1" departLane="0" departPos="101.50747362202475" departSpeed="0.0" id="315" type="passenger">
		<route edges="31872 31185"/>
	</vehicle>
	<vehicle depart="0.1" departLane="0" departPos="94.00684409989937" departSpeed="0.0" id="333" type="passenger">
		<route edges="31872 31185"/>
	</vehicle>
	<vehicle depart="0.1" departLane="0" departPos="20.182098638998223" departSpeed="0.023903326" id="350" type="passenger">
		<route edges="31181 31640"/>
	</vehicle>
	<vehicle depart="0.1" departLane="0" departPos="12.409184827632174" departSpeed="0.2896463" id="357" type="passenger">
		<route edges="31181 31640"/>
	</vehicle>
	<vehicle depart="0.1" departLane="0" departPos="27.3073323614765" departSpeed="4.447029" id="373" type="passenger">
		<route edges=":66_5 31181"/>
	</vehicle>
	<vehicle depart="0.1" departLane="0" departPos="32.433792973046316" departSpeed="0.24667346" id="377" type="passenger">
		<route edges="31184 31181 31640"/>
	</vehicle>
	<vehicle depart="0.1" departLane="0" departPos="25.73275905794384" departSpeed="0.70658863" id="325" type="motorcycle">
		<route edges=":63_0 31182 31185"/>
	</vehicle>
</routes>
