<routes>
	<vehicle depart="0.1" departLane="0" departPos="13.329611007987838" departSpeed="6.3104033" id="39" type="passenger">
		<route edges=":46_4 48064 47996"/>
	</vehicle>
	<vehicle depart="0.1" departLane="0" departPos="26.29063711299427" departSpeed="6.8175113" id="312" type="passenger">
		<route edges=":44_5 48063 47783"/>
	</vehicle>
	<vehicle depart="0.1" departLane="0" departPos="17.20988504579873" departSpeed="4.8780636" id="317" type="passenger">
		<route edges="47997 48067 48070"/>
	</vehicle>
	<vehicle depart="0.1" departLane="0" departPos="12.397771670039534" departSpeed="4.7201801" id="328" type="passenger">
		<route edges=":44_3 47996"/>
	</vehicle>
	<vehicle depart="0.1" departLane="0" departPos="18.87562859417853" departSpeed="0.39946946" id="335" type="passenger">
		<route edges=":45_0 48066 47996"/>
	</vehicle>
	<vehicle depart="0.1" departLane="0" departPos="5.961733226578826" departSpeed="2.1714826" id="336" type="passenger">
		<route edges="47997 48067"/>
	</vehicle>
</routes>
