<routes>
	<vehicle depart="0.1" departLane="0" departPos="5.126146049453567" departSpeed="1.2889423" id="30" type="passenger">
		<route edges=":44_4 12921"/>
	</vehicle>
	<vehicle depart="0.1" departLane="0" departPos="10.205934364578688" departSpeed="0.57625862" id="33" type="passenger">
		<route edges="12994 13066"/>
	</vehicle>
	<vehicle depart="0.1" departLane="0" departPos="22.259380218526402" departSpeed="4.0025818" id="312" type="passenger">
		<route edges=":49_3 12922"/>
	</vehicle>
	<vehicle depart="0.1" departLane="0" departPos="8.237074797348802" departSpeed="3.3305845" id="319" type="passenger">
		<route edges=":49_3 12922"/>
	</vehicle>
	<vehicle depart="0.1" departLane="0" departPos="12.619456661790366" departSpeed="2.7639704" id="326" type="passenger">
		<route edges=":44_5 12993"/>
	</vehicle>
	<vehicle depart="0.1" departLane="0" departPos="17.55017579108152" departSpeed="1.2131983" id="331" type="passenger">
		<route edges=":44_0 13066"/>
	</vehicle>
	<vehicle depart="0.1" departLane="0" departPos="38.03596933803345" departSpeed="3.2429935" id="334" type="passenger">
		<route edges="13022 12921 12918"/>
	</vehicle>
	<vehicle depart="0.1" departLane="0" departPos="23.063933738325503" departSpeed="0.75044693" id="345" type="passenger">
		<route edges=":49_2 12922"/>
	</vehicle>
	<vehicle depart="0.1" departLane="0" departPos="13.788650032301469" departSpeed="2.2769358" id="347" type="passenger">
		<route edges=":49_2 12922"/>
	</vehicle>
	<vehicle depart="0.1" departLane="0" departPos="22.140472531858805" departSpeed="2.4438935" id="322" type="motorcycle">
		<route edges=":44_0 13066"/>
	</vehicle>
</routes>
