<!-- generated on Tue Feb  9 22:05:18 2021 by Eclipse SUMO netconvert Version 1.8.0
<configuration xmlns:xsi="http://www.w3.org/2001/XMLSchema-instance" xsi:noNamespaceSchemaLocation="http://sumo.dlr.de/xsd/netconvertConfiguration.xsd">

    <input>
        <node-files value="./converted_scenarios/scenario-factory/ARG_Carcarana-4_3_I-1-1/ARG_Carcarana-4_3_I-1-1.nod.xml"/>
        <edge-files value="./converted_scenarios/scenario-factory/ARG_Carcarana-4_3_I-1-1/ARG_Carcarana-4_3_I-1-1.edg.xml"/>
        <connection-files value="./converted_scenarios/scenario-factory/ARG_Carcarana-4_3_I-1-1/ARG_Carcarana-4_3_I-1-1.con.xml"/>
        <tllogic-files value="./converted_scenarios/scenario-factory/ARG_Carcarana-4_3_I-1-1/ARG_Carcarana-4_3_I-1-1.tll.xml"/>
        <type-files value="/home/zen/commonroad-interactive-benchmarks/install/commonroad-map-tool/crmapconverter/sumo_map/templates/DEU.typ.xml"/>
    </input>

    <output>
        <output-file value="./converted_scenarios/scenario-factory/ARG_Carcarana-4_3_I-1-1/ARG_Carcarana-4_3_I-1-1.net.xml"/>
    </output>

    <processing>
        <geometry.remove.keep-edges.explicit value="true"/>
        <geometry.avoid-overlap value="true"/>
        <offset.disable-normalization value="true"/>
    </processing>

    <junctions>
        <no-turnarounds value="true"/>
        <junctions.internal-link-detail value="20"/>
    </junctions>

    <report>
        <aggregate-warnings value="5"/>
    </report>

    <random_number>
        <seed value="1234"/>
    </random_number>

</configuration>
--><net xmlns:xsi="http://www.w3.org/2001/XMLSchema-instance" version="1.6" junctionCornerDetail="5" junctionLinkDetail="20" limitTurnSpeed="5.50" xsi:noNamespaceSchemaLocation="http://sumo.dlr.de/xsd/net_file.xsd">

    <location netOffset="0.00,0.00" convBoundary="-530.97,-681.99,193.84,-37.35" origBoundary="-530.97,-681.99,193.84,-37.35" projParameter="!"/>

    <type id="highway.bridleway" priority="1" speed="2.78" allow="pedestrian" oneway="1" width="2.00"/>
    <type id="highway.bus_guideway" priority="1" speed="27.78" allow="bus" oneway="1"/>
    <type id="highway.cycleway" priority="1" speed="8.33" allow="bicycle" oneway="0" width="1.00"/>
    <type id="highway.footway" priority="1" speed="2.78" allow="pedestrian" oneway="1" width="2.00"/>
    <type id="highway.ford" priority="1" speed="2.78" allow="army" oneway="0"/>
    <type id="highway.living_street" priority="2" speed="2.78" disallow="tram rail_urban rail rail_electric rail_fast ship" oneway="0"/>
    <type id="highway.motorway" priority="14" speed="39.44" allow="private emergency authority army vip passenger hov taxi bus coach delivery truck trailer motorcycle evehicle custom1 custom2" oneway="1"/>
    <type id="highway.motorway_link" priority="9" speed="22.22" allow="private emergency authority army vip passenger hov taxi bus coach delivery truck trailer motorcycle evehicle custom1 custom2" oneway="1"/>
    <type id="highway.path" priority="1" speed="2.78" allow="pedestrian bicycle" oneway="0" width="2.00"/>
    <type id="highway.pedestrian" priority="1" speed="2.78" allow="pedestrian" oneway="1" width="2.00"/>
    <type id="highway.primary" priority="12" speed="27.78" disallow="pedestrian tram rail_urban rail rail_electric rail_fast ship" oneway="0"/>
    <type id="highway.primary_link" priority="7" speed="22.22" disallow="pedestrian tram rail_urban rail rail_electric rail_fast ship" oneway="0"/>
    <type id="highway.raceway" priority="15" speed="83.33" allow="vip" oneway="0"/>
    <type id="highway.residential" priority="3" speed="13.89" disallow="pedestrian tram rail_urban rail rail_electric rail_fast ship" oneway="0"/>
    <type id="highway.secondary" priority="11" speed="27.78" disallow="pedestrian tram rail_urban rail rail_electric rail_fast ship" oneway="0"/>
    <type id="highway.secondary_link" priority="6" speed="22.22" disallow="pedestrian tram rail_urban rail rail_electric rail_fast ship" oneway="0"/>
    <type id="highway.service" priority="1" speed="5.56" allow="pedestrian delivery bicycle" oneway="0"/>
    <type id="highway.stairs" priority="1" speed="1.39" allow="pedestrian" oneway="1" width="2.00"/>
    <type id="highway.step" priority="1" speed="1.39" allow="pedestrian" oneway="1" width="2.00"/>
    <type id="highway.steps" priority="1" speed="1.39" allow="pedestrian" oneway="1" width="2.00"/>
    <type id="highway.tertiary" priority="10" speed="22.22" disallow="pedestrian tram rail_urban rail rail_electric rail_fast ship" oneway="0"/>
    <type id="highway.tertiary_link" priority="5" speed="22.22" disallow="pedestrian tram rail_urban rail rail_electric rail_fast ship" oneway="0"/>
    <type id="highway.track" priority="1" speed="5.56" allow="pedestrian motorcycle moped bicycle" oneway="0"/>
    <type id="highway.trunk" priority="13" speed="27.78" disallow="pedestrian bicycle tram rail_urban rail rail_electric rail_fast ship" oneway="0"/>
    <type id="highway.trunk_link" priority="8" speed="22.22" disallow="pedestrian bicycle tram rail_urban rail rail_electric rail_fast ship" oneway="0"/>
    <type id="highway.unclassified" priority="4" speed="13.89" disallow="pedestrian tram rail_urban rail rail_electric rail_fast ship" oneway="0"/>
    <type id="highway.unsurfaced" priority="1" speed="8.33" disallow="tram rail_urban rail rail_electric rail_fast ship" oneway="0"/>
    <type id="railway.highspeed" priority="21" speed="69.44" allow="rail_fast" oneway="1"/>
    <type id="railway.light_rail" priority="19" speed="27.78" allow="rail_urban" oneway="1"/>
    <type id="railway.preserved" priority="16" speed="27.78" allow="rail" oneway="1"/>
    <type id="railway.rail" priority="20" speed="44.44" allow="rail" oneway="1"/>
    <type id="railway.subway" priority="18" speed="27.78" allow="rail_urban" oneway="1"/>
    <type id="railway.tram" priority="17" speed="13.89" allow="tram" oneway="1"/>

    <edge id=":229_0" function="internal">
        <lane id=":229_0_0" index="0" disallow="pedestrian tram rail_urban rail rail_electric rail_fast ship" speed="11.19" length="28.58" width="3.50" shape="-33.56,-373.51 -34.12,-375.74 -34.83,-377.89 -35.73,-379.92 -36.83,-381.82 -38.18,-383.53 -38.91,-384.26 -39.71,-384.95 -40.57,-385.56 -41.47,-386.09 -42.43,-386.54 -43.42,-386.91 -44.42,-387.20 -46.59,-387.59 -48.79,-387.69 -51.02,-387.57 -54.41,-387.04"/>
    </edge>
    <edge id=":229_1" function="internal">
        <lane id=":229_1_0" index="0" disallow="pedestrian tram rail_urban rail rail_electric rail_fast ship" speed="36.11" length="38.83" width="3.50" shape="-33.56,-373.51 -37.66,-392.50 -41.75,-411.47"/>
    </edge>
    <edge id=":229_2" function="internal">
        <lane id=":229_2_0" index="0" disallow="pedestrian tram rail_urban rail rail_electric rail_fast ship" speed="36.11" length="38.82" width="3.50" shape="-38.33,-412.21 -34.24,-393.24 -30.14,-374.26"/>
    </edge>
    <edge id=":229_3" function="internal">
        <lane id=":229_3_0" index="0" disallow="pedestrian tram rail_urban rail rail_electric rail_fast ship" speed="12.17" length="34.21" width="3.50" shape="-38.33,-412.21 -37.88,-409.71 -37.61,-407.16 -37.57,-404.56 -37.83,-401.94 -38.43,-399.37 -38.89,-398.07 -39.46,-396.83 -40.14,-395.65 -40.91,-394.53 -41.79,-393.48 -42.74,-392.52 -43.79,-391.62 -45.96,-390.14 -48.30,-388.95 -50.73,-388.02 -54.41,-387.04"/>
    </edge>
    <edge id=":229_4" function="internal">
        <lane id=":229_4_0" index="0" disallow="pedestrian tram rail_urban rail rail_electric rail_fast ship" speed="11.16" length="28.61" width="3.50" shape="-55.13,-390.46 -51.94,-391.31 -49.89,-392.10 -47.93,-393.10 -46.11,-394.34 -45.28,-395.06 -44.50,-395.84 -43.80,-396.68 -43.17,-397.59 -42.63,-398.55 -42.17,-399.55 -41.80,-400.58 -41.30,-402.73 -41.09,-404.92 -41.12,-407.12 -41.36,-409.30 -41.75,-411.47"/>
    </edge>
    <edge id=":229_5" function="internal">
        <lane id=":229_5_0" index="0" disallow="pedestrian tram rail_urban rail rail_electric rail_fast ship" speed="12.19" length="34.13" width="3.50" shape="-55.13,-390.46 -51.24,-391.07 -48.62,-391.21 -46.00,-391.09 -43.41,-390.63 -42.15,-390.27 -40.93,-389.81 -39.74,-389.24 -38.61,-388.58 -37.54,-387.82 -36.54,-386.97 -35.61,-386.03 -34.00,-383.97 -32.67,-381.70 -31.61,-379.30 -30.78,-376.81 -30.14,-374.26"/>
    </edge>
    <edge id=":230_0" function="internal">
        <lane id=":230_0_0" index="0" disallow="pedestrian tram rail_urban rail rail_electric rail_fast ship" speed="11.17" length="28.59" width="3.50" shape="-285.65,-320.10 -286.49,-323.28 -287.26,-325.34 -288.23,-327.32 -289.44,-329.16 -290.14,-330.01 -290.90,-330.81 -291.72,-331.54 -292.61,-332.19 -293.55,-332.76 -294.54,-333.25 -295.56,-333.65 -296.62,-333.97 -298.78,-334.37 -300.98,-334.49 -303.18,-334.38 -306.42,-333.88"/>
    </edge>
    <edge id=":230_1" function="internal">
        <lane id=":230_1_0" index="0" disallow="pedestrian tram rail_urban rail rail_electric rail_fast ship" speed="36.11" length="38.77" width="3.50" shape="-285.65,-320.10 -289.63,-339.06 -293.60,-358.05"/>
    </edge>
    <edge id=":230_2" function="internal">
        <lane id=":230_2_0" index="0" disallow="pedestrian tram rail_urban rail rail_electric rail_fast ship" speed="12.23" length="34.42" width="3.50" shape="-285.65,-320.10 -286.09,-322.61 -286.34,-325.18 -286.35,-327.80 -286.06,-330.44 -285.41,-333.02 -284.92,-334.33 -284.33,-335.56 -283.63,-336.74 -282.83,-337.86 -281.94,-338.90 -280.97,-339.85 -279.91,-340.74 -277.71,-342.21 -275.35,-343.39 -272.91,-344.32 -269.20,-345.30"/>
    </edge>
    <edge id=":230_3" function="internal">
        <lane id=":230_3_0" index="0" disallow="pedestrian tram rail_urban rail rail_electric rail_fast ship" speed="11.23" length="28.84" width="3.50" shape="-268.48,-341.88 -271.69,-341.02 -273.77,-340.24 -275.76,-339.24 -277.60,-338.01 -278.45,-337.30 -279.24,-336.52 -279.96,-335.67 -280.61,-334.77 -281.18,-333.82 -281.66,-332.82 -282.05,-331.78 -282.59,-329.63 -282.83,-327.42 -282.82,-325.20 -282.61,-322.99 -282.23,-320.82"/>
    </edge>
    <edge id=":230_4" function="internal">
        <lane id=":230_4_0" index="0" disallow="pedestrian tram rail_urban rail rail_electric rail_fast ship" speed="36.11" length="38.77" width="3.50" shape="-268.48,-341.88 -287.46,-337.88 -306.42,-333.88"/>
    </edge>
    <edge id=":230_5" function="internal">
        <lane id=":230_5_0" index="0" disallow="pedestrian tram rail_urban rail rail_electric rail_fast ship" speed="12.19" length="34.29" width="3.50" shape="-268.48,-341.88 -272.38,-341.26 -275.02,-341.11 -277.65,-341.22 -280.25,-341.66 -281.52,-342.02 -282.76,-342.47 -283.96,-343.03 -285.10,-343.68 -286.18,-344.44 -287.19,-345.29 -288.13,-346.22 -289.76,-348.29 -291.09,-350.56 -292.15,-352.98 -292.98,-355.48 -293.60,-358.05"/>
    </edge>
    <edge id=":230_6" function="internal">
        <lane id=":230_6_0" index="0" disallow="pedestrian tram rail_urban rail rail_electric rail_fast ship" speed="11.19" length="28.69" width="3.50" shape="-290.18,-358.76 -289.63,-356.54 -288.92,-354.38 -288.03,-352.34 -286.92,-350.44 -285.56,-348.72 -284.83,-348.00 -284.01,-347.32 -283.15,-346.71 -282.23,-346.19 -281.27,-345.74 -280.27,-345.38 -279.26,-345.09 -277.07,-344.73 -274.85,-344.63 -272.61,-344.76 -269.20,-345.30"/>
    </edge>
    <edge id=":230_7" function="internal">
        <lane id=":230_7_0" index="0" disallow="pedestrian tram rail_urban rail rail_electric rail_fast ship" speed="36.11" length="38.76" width="3.50" shape="-290.18,-358.76 -286.20,-339.78 -282.23,-320.82"/>
    </edge>
    <edge id=":230_8" function="internal">
        <lane id=":230_8_0" index="0" disallow="pedestrian tram rail_urban rail rail_electric rail_fast ship" speed="12.15" length="33.98" width="3.50" shape="-290.18,-358.76 -289.75,-356.27 -289.50,-353.73 -289.49,-351.14 -289.78,-348.53 -290.42,-345.99 -290.91,-344.70 -291.50,-343.48 -292.19,-342.32 -292.98,-341.22 -293.86,-340.19 -294.82,-339.25 -295.87,-338.37 -298.04,-336.93 -300.37,-335.76 -302.79,-334.85 -306.42,-333.88"/>
    </edge>
    <edge id=":230_9" function="internal">
        <lane id=":230_9_0" index="0" disallow="pedestrian tram rail_urban rail rail_electric rail_fast ship" speed="11.15" length="28.40" width="3.50" shape="-307.14,-337.30 -304.00,-338.14 -301.95,-338.91 -300.00,-339.89 -298.18,-341.10 -297.34,-341.80 -296.56,-342.57 -295.85,-343.40 -295.21,-344.29 -294.65,-345.23 -294.18,-346.21 -293.79,-347.23 -293.25,-349.35 -293.01,-351.53 -293.02,-353.71 -293.23,-355.89 -293.60,-358.05"/>
    </edge>
    <edge id=":230_10" function="internal">
        <lane id=":230_10_0" index="0" disallow="pedestrian tram rail_urban rail rail_electric rail_fast ship" speed="36.11" length="38.77" width="3.50" shape="-307.14,-337.30 -288.18,-341.30 -269.20,-345.30"/>
    </edge>
    <edge id=":230_11" function="internal">
        <lane id=":230_11_0" index="0" disallow="pedestrian tram rail_urban rail rail_electric rail_fast ship" speed="12.18" length="34.17" width="3.50" shape="-307.14,-337.30 -303.40,-337.88 -300.80,-338.01 -298.18,-337.87 -295.59,-337.40 -294.27,-337.00 -293.01,-336.51 -291.79,-335.91 -290.62,-335.20 -289.52,-334.39 -288.50,-333.49 -287.57,-332.52 -286.70,-331.45 -285.26,-329.26 -284.10,-326.92 -283.20,-324.48 -282.23,-320.82"/>
    </edge>
    <edge id=":231_0" function="internal">
        <lane id=":231_0_0" index="0" disallow="pedestrian tram rail_urban rail rail_electric rail_fast ship" speed="11.22" length="28.77" width="3.50" shape="-175.27,-415.34 -175.82,-417.60 -176.53,-419.77 -177.42,-421.83 -178.51,-423.75 -179.84,-425.51 -180.56,-426.25 -181.36,-426.96 -182.21,-427.59 -183.12,-428.14 -184.07,-428.61 -185.06,-429.00 -186.06,-429.30 -188.23,-429.71 -190.45,-429.83 -192.69,-429.72 -196.09,-429.19"/>
    </edge>
    <edge id=":231_1" function="internal">
        <lane id=":231_1_0" index="0" disallow="pedestrian tram rail_urban rail rail_electric rail_fast ship" speed="36.11" length="38.86" width="3.50" shape="-175.27,-415.34 -179.30,-434.36 -183.32,-453.36"/>
    </edge>
    <edge id=":231_2" function="internal">
        <lane id=":231_2_0" index="0" disallow="pedestrian tram rail_urban rail rail_electric rail_fast ship" speed="12.25" length="34.59" width="3.50" shape="-175.27,-415.34 -175.90,-419.30 -176.04,-421.95 -175.92,-424.61 -175.47,-427.22 -175.10,-428.50 -174.63,-429.74 -174.06,-430.94 -173.39,-432.09 -172.62,-433.17 -171.75,-434.18 -170.81,-435.11 -169.79,-435.97 -167.59,-437.45 -165.21,-438.64 -162.73,-439.58 -158.85,-440.61"/>
    </edge>
    <edge id=":231_3" function="internal">
        <lane id=":231_3_0" index="0" disallow="pedestrian tram rail_urban rail rail_electric rail_fast ship" speed="11.25" length="28.99" width="3.50" shape="-158.13,-437.18 -161.51,-436.29 -163.63,-435.49 -165.63,-434.49 -167.48,-433.24 -168.29,-432.56 -169.05,-431.80 -169.75,-430.99 -170.37,-430.13 -170.90,-429.21 -171.36,-428.24 -171.74,-427.23 -172.04,-426.22 -172.42,-424.02 -172.52,-421.78 -172.40,-419.52 -171.85,-416.07"/>
    </edge>
    <edge id=":231_4" function="internal">
        <lane id=":231_4_0" index="0" disallow="pedestrian tram rail_urban rail rail_electric rail_fast ship" speed="36.11" length="38.79" width="3.50" shape="-158.13,-437.18 -177.12,-433.18 -196.09,-429.19"/>
    </edge>
    <edge id=":231_5" function="internal">
        <lane id=":231_5_0" index="0" disallow="pedestrian tram rail_urban rail rail_electric rail_fast ship" speed="12.21" length="34.34" width="3.50" shape="-158.13,-437.18 -162.06,-436.56 -164.70,-436.41 -167.34,-436.53 -169.94,-436.97 -171.21,-437.32 -172.45,-437.78 -173.64,-438.33 -174.79,-438.99 -175.87,-439.75 -176.88,-440.60 -177.81,-441.53 -179.45,-443.60 -180.79,-445.87 -181.85,-448.29 -182.68,-450.79 -183.32,-453.36"/>
    </edge>
    <edge id=":231_6" function="internal">
        <lane id=":231_6_0" index="0" disallow="pedestrian tram rail_urban rail rail_electric rail_fast ship" speed="11.21" length="28.76" width="3.50" shape="-179.89,-454.08 -179.34,-451.85 -178.63,-449.70 -177.73,-447.65 -176.62,-445.75 -175.25,-444.04 -174.52,-443.31 -173.70,-442.63 -172.84,-442.02 -171.92,-441.50 -170.96,-441.05 -169.95,-440.68 -168.94,-440.40 -166.75,-440.03 -164.53,-439.93 -162.29,-440.06 -158.85,-440.61"/>
    </edge>
    <edge id=":231_7" function="internal">
        <lane id=":231_7_0" index="0" disallow="pedestrian tram rail_urban rail rail_electric rail_fast ship" speed="36.11" length="38.85" width="3.50" shape="-179.89,-454.08 -175.87,-435.09 -171.85,-416.07"/>
    </edge>
    <edge id=":231_8" function="internal">
        <lane id=":231_8_0" index="0" disallow="pedestrian tram rail_urban rail rail_electric rail_fast ship" speed="12.15" length="33.98" width="3.50" shape="-179.89,-454.08 -179.45,-451.59 -179.20,-449.05 -179.19,-446.47 -179.47,-443.86 -180.10,-441.32 -180.59,-440.03 -181.17,-438.81 -181.86,-437.64 -182.64,-436.54 -183.52,-435.51 -184.48,-434.57 -185.53,-433.69 -187.70,-432.24 -190.02,-431.07 -192.44,-430.16 -196.09,-429.19"/>
    </edge>
    <edge id=":231_9" function="internal">
        <lane id=":231_9_0" index="0" disallow="pedestrian tram rail_urban rail rail_electric rail_fast ship" speed="11.14" length="28.41" width="3.50" shape="-196.82,-432.61 -193.65,-433.45 -191.61,-434.22 -189.65,-435.20 -187.84,-436.42 -187.00,-437.12 -186.22,-437.89 -185.51,-438.72 -184.88,-439.61 -184.32,-440.55 -183.85,-441.53 -183.47,-442.55 -182.94,-444.67 -182.71,-446.85 -182.72,-449.03 -182.94,-451.20 -183.32,-453.36"/>
    </edge>
    <edge id=":231_10" function="internal">
        <lane id=":231_10_0" index="0" disallow="pedestrian tram rail_urban rail rail_electric rail_fast ship" speed="36.11" length="38.80" width="3.50" shape="-196.82,-432.61 -177.85,-436.61 -158.85,-440.61"/>
    </edge>
    <edge id=":231_11" function="internal">
        <lane id=":231_11_0" index="0" disallow="pedestrian tram rail_urban rail rail_electric rail_fast ship" speed="12.22" length="34.36" width="3.50" shape="-196.82,-432.61 -192.90,-433.22 -190.26,-433.35 -187.63,-433.21 -185.03,-432.73 -183.77,-432.35 -182.54,-431.86 -181.35,-431.28 -180.22,-430.59 -179.16,-429.81 -178.17,-428.94 -177.25,-427.99 -175.65,-425.89 -174.35,-423.59 -173.30,-421.17 -172.48,-418.65 -171.85,-416.07"/>
    </edge>
    <edge id=":232_0" function="internal">
        <lane id=":232_0_0" index="0" disallow="pedestrian tram rail_urban rail rail_electric rail_fast ship" speed="11.21" length="28.81" width="3.50" shape="-145.42,-274.33 -146.28,-277.54 -147.06,-279.62 -148.06,-281.60 -149.29,-283.44 -150.00,-284.29 -150.78,-285.08 -151.62,-285.80 -152.52,-286.44 -153.47,-287.00 -154.48,-287.48 -155.51,-287.87 -157.66,-288.40 -159.86,-288.64 -162.08,-288.62 -164.29,-288.39 -166.47,-288.00"/>
    </edge>
    <edge id=":232_1" function="internal">
        <lane id=":232_1_0" index="0" disallow="pedestrian tram rail_urban rail rail_electric rail_fast ship" speed="36.11" length="38.84" width="3.50" shape="-145.42,-274.33 -149.44,-293.33 -153.46,-312.33"/>
    </edge>
    <edge id=":232_2" function="internal">
        <lane id=":232_2_0" index="0" disallow="pedestrian tram rail_urban rail rail_electric rail_fast ship" speed="12.21" length="34.33" width="3.50" shape="-145.42,-274.33 -146.04,-278.24 -146.20,-280.88 -146.08,-283.52 -145.65,-286.12 -145.29,-287.39 -144.84,-288.63 -144.28,-289.83 -143.63,-290.98 -142.87,-292.06 -142.02,-293.07 -141.09,-294.01 -139.02,-295.65 -136.75,-296.98 -134.33,-298.05 -131.83,-298.88 -129.26,-299.52"/>
    </edge>
    <edge id=":232_3" function="internal">
        <lane id=":232_3_0" index="0" disallow="pedestrian tram rail_urban rail rail_electric rail_fast ship" speed="11.21" length="28.75" width="3.50" shape="-128.53,-296.10 -130.76,-295.54 -132.92,-294.83 -134.97,-293.93 -136.86,-292.81 -138.58,-291.45 -139.31,-290.71 -139.99,-289.90 -140.59,-289.03 -141.12,-288.11 -141.56,-287.15 -141.93,-286.14 -142.21,-285.13 -142.58,-282.94 -142.67,-280.71 -142.54,-278.47 -142.00,-275.06"/>
    </edge>
    <edge id=":232_4" function="internal">
        <lane id=":232_4_0" index="0" disallow="pedestrian tram rail_urban rail rail_electric rail_fast ship" speed="36.11" length="38.80" width="3.50" shape="-128.53,-296.10 -147.50,-292.05 -166.47,-288.00"/>
    </edge>
    <edge id=":232_5" function="internal">
        <lane id=":232_5_0" index="0" disallow="pedestrian tram rail_urban rail rail_electric rail_fast ship" speed="12.16" length="34.04" width="3.50" shape="-128.53,-296.10 -131.03,-295.66 -133.57,-295.40 -136.16,-295.39 -138.77,-295.67 -141.32,-296.31 -142.61,-296.80 -143.83,-297.38 -145.00,-298.07 -146.10,-298.86 -147.13,-299.74 -148.08,-300.70 -148.95,-301.75 -150.40,-303.92 -151.57,-306.25 -152.49,-308.67 -153.46,-312.33"/>
    </edge>
    <edge id=":232_6" function="internal">
        <lane id=":232_6_0" index="0" disallow="pedestrian tram rail_urban rail rail_electric rail_fast ship" speed="11.15" length="28.45" width="3.50" shape="-150.04,-313.05 -149.20,-309.88 -148.42,-307.83 -147.44,-305.88 -146.22,-304.06 -145.52,-303.22 -144.75,-302.44 -143.92,-301.73 -143.03,-301.09 -142.09,-300.53 -141.10,-300.06 -140.08,-299.67 -137.96,-299.14 -135.78,-298.91 -133.60,-298.92 -131.42,-299.14 -129.26,-299.52"/>
    </edge>
    <edge id=":232_7" function="internal">
        <lane id=":232_7_0" index="0" disallow="pedestrian tram rail_urban rail rail_electric rail_fast ship" speed="36.11" length="38.83" width="3.50" shape="-150.04,-313.05 -146.02,-294.06 -142.00,-275.06"/>
    </edge>
    <edge id=":232_8" function="internal">
        <lane id=":232_8_0" index="0" disallow="pedestrian tram rail_urban rail rail_electric rail_fast ship" speed="12.22" length="34.34" width="3.50" shape="-150.04,-313.05 -149.43,-309.14 -149.29,-306.50 -149.43,-303.86 -149.89,-301.26 -150.27,-300.00 -150.75,-298.77 -151.32,-297.58 -152.00,-296.44 -152.78,-295.38 -153.65,-294.38 -154.59,-293.46 -156.68,-291.84 -158.97,-290.53 -161.39,-289.47 -163.90,-288.64 -166.47,-288.00"/>
    </edge>
    <edge id=":232_9" function="internal">
        <lane id=":232_9_0" index="0" disallow="pedestrian tram rail_urban rail rail_electric rail_fast ship" speed="11.22" length="28.77" width="3.50" shape="-167.20,-291.43 -164.97,-291.98 -162.80,-292.70 -160.74,-293.59 -158.83,-294.69 -157.08,-296.03 -156.34,-296.76 -155.64,-297.56 -155.02,-298.42 -154.47,-299.33 -154.01,-300.28 -153.62,-301.28 -153.32,-302.28 -152.92,-304.46 -152.81,-306.68 -152.93,-308.92 -153.46,-312.33"/>
    </edge>
    <edge id=":232_10" function="internal">
        <lane id=":232_10_0" index="0" disallow="pedestrian tram rail_urban rail rail_electric rail_fast ship" speed="36.11" length="38.79" width="3.50" shape="-167.20,-291.43 -148.23,-295.47 -129.26,-299.52"/>
    </edge>
    <edge id=":232_11" function="internal">
        <lane id=":232_11_0" index="0" disallow="pedestrian tram rail_urban rail rail_electric rail_fast ship" speed="12.21" length="34.39" width="3.50" shape="-167.20,-291.43 -164.68,-291.88 -162.11,-292.14 -159.49,-292.16 -156.86,-291.87 -154.28,-291.24 -152.97,-290.75 -151.74,-290.16 -150.56,-289.47 -149.44,-288.67 -148.40,-287.78 -147.45,-286.81 -146.56,-285.75 -145.09,-283.55 -143.91,-281.20 -142.99,-278.76 -142.00,-275.06"/>
    </edge>
    <edge id=":233_0" function="internal">
        <lane id=":233_0_0" index="0" disallow="pedestrian tram rail_urban rail rail_electric rail_fast ship" speed="11.19" length="28.67" width="3.50" shape="-160.68,-346.42 -161.53,-349.62 -162.30,-351.68 -163.28,-353.66 -164.49,-355.50 -165.19,-356.36 -165.95,-357.15 -166.78,-357.88 -167.67,-358.54 -168.61,-359.11 -169.60,-359.60 -170.62,-360.00 -171.68,-360.32 -173.85,-360.72 -176.05,-360.84 -178.25,-360.73 -181.52,-360.22"/>
    </edge>
    <edge id=":233_1" function="internal">
        <lane id=":233_1_0" index="0" disallow="pedestrian tram rail_urban rail rail_electric rail_fast ship" speed="36.11" length="38.87" width="3.50" shape="-160.68,-346.42 -164.70,-365.43 -168.73,-384.45"/>
    </edge>
    <edge id=":233_2" function="internal">
        <lane id=":233_2_0" index="0" disallow="pedestrian tram rail_urban rail rail_electric rail_fast ship" speed="12.24" length="34.53" width="3.50" shape="-160.68,-346.42 -161.30,-350.36 -161.45,-353.01 -161.32,-355.66 -160.87,-358.28 -160.50,-359.56 -160.03,-360.80 -159.46,-362.00 -158.79,-363.14 -158.02,-364.22 -157.15,-365.23 -156.21,-366.17 -155.19,-367.02 -152.99,-368.50 -150.61,-369.69 -148.13,-370.63 -144.28,-371.66"/>
    </edge>
    <edge id=":233_3" function="internal">
        <lane id=":233_3_0" index="0" disallow="pedestrian tram rail_urban rail rail_electric rail_fast ship" speed="11.24" length="28.95" width="3.50" shape="-143.55,-368.23 -146.91,-367.34 -149.03,-366.54 -151.03,-365.54 -152.88,-364.29 -153.69,-363.61 -154.45,-362.86 -155.15,-362.05 -155.77,-361.18 -156.31,-360.26 -156.77,-359.29 -157.14,-358.29 -157.44,-357.27 -157.82,-355.07 -157.93,-352.84 -157.80,-350.58 -157.26,-347.15"/>
    </edge>
    <edge id=":233_4" function="internal">
        <lane id=":233_4_0" index="0" disallow="pedestrian tram rail_urban rail rail_electric rail_fast ship" speed="36.11" length="38.81" width="3.50" shape="-143.55,-368.23 -162.54,-364.23 -181.52,-360.22"/>
    </edge>
    <edge id=":233_5" function="internal">
        <lane id=":233_5_0" index="0" disallow="pedestrian tram rail_urban rail rail_electric rail_fast ship" speed="12.20" length="34.26" width="3.50" shape="-143.55,-368.23 -146.06,-367.79 -148.62,-367.54 -151.22,-367.51 -153.84,-367.79 -156.41,-368.41 -157.71,-368.88 -158.95,-369.46 -160.13,-370.14 -161.25,-370.92 -162.29,-371.80 -163.25,-372.76 -164.14,-373.81 -165.62,-375.98 -166.81,-378.32 -167.74,-380.76 -168.73,-384.45"/>
    </edge>
    <edge id=":233_6" function="internal">
        <lane id=":233_6_0" index="0" disallow="pedestrian tram rail_urban rail rail_electric rail_fast ship" speed="11.20" length="28.66" width="3.50" shape="-165.30,-385.17 -164.45,-381.98 -163.66,-379.92 -162.66,-377.95 -161.42,-376.13 -160.71,-375.29 -159.92,-374.51 -159.08,-373.80 -158.18,-373.17 -157.22,-372.62 -156.22,-372.15 -155.18,-371.77 -153.04,-371.26 -150.85,-371.03 -148.64,-371.05 -146.45,-371.27 -144.28,-371.66"/>
    </edge>
    <edge id=":233_7" function="internal">
        <lane id=":233_7_0" index="0" disallow="pedestrian tram rail_urban rail rail_electric rail_fast ship" speed="36.11" length="38.86" width="3.50" shape="-165.30,-385.17 -161.28,-366.16 -157.26,-347.15"/>
    </edge>
    <edge id=":233_8" function="internal">
        <lane id=":233_8_0" index="0" disallow="pedestrian tram rail_urban rail rail_electric rail_fast ship" speed="12.17" length="34.14" width="3.50" shape="-165.30,-385.17 -164.69,-381.28 -164.54,-378.66 -164.67,-376.04 -165.12,-373.45 -165.48,-372.19 -165.94,-370.96 -166.51,-369.77 -167.17,-368.64 -167.93,-367.57 -168.79,-366.57 -169.72,-365.65 -171.79,-364.04 -174.06,-362.72 -176.47,-361.67 -178.97,-360.85 -181.52,-360.22"/>
    </edge>
    <edge id=":233_9" function="internal">
        <lane id=":233_9_0" index="0" disallow="pedestrian tram rail_urban rail rail_electric rail_fast ship" speed="11.17" length="28.55" width="3.50" shape="-182.24,-363.65 -180.02,-364.19 -177.88,-364.90 -175.83,-365.79 -173.94,-366.88 -172.22,-368.23 -171.49,-368.95 -170.80,-369.75 -170.19,-370.60 -169.66,-371.51 -169.21,-372.46 -168.84,-373.46 -168.55,-374.45 -168.17,-376.63 -168.07,-378.83 -168.19,-381.06 -168.73,-384.45"/>
    </edge>
    <edge id=":233_10" function="internal">
        <lane id=":233_10_0" index="0" disallow="pedestrian tram rail_urban rail rail_electric rail_fast ship" speed="36.11" length="38.80" width="3.50" shape="-182.24,-363.65 -163.26,-367.65 -144.28,-371.66"/>
    </edge>
    <edge id=":233_11" function="internal">
        <lane id=":233_11_0" index="0" disallow="pedestrian tram rail_urban rail rail_electric rail_fast ship" speed="12.20" length="34.24" width="3.50" shape="-182.24,-363.65 -178.47,-364.23 -175.86,-364.37 -173.24,-364.22 -170.65,-363.75 -169.33,-363.35 -168.07,-362.86 -166.85,-362.25 -165.68,-361.54 -164.58,-360.73 -163.56,-359.84 -162.62,-358.86 -161.75,-357.80 -160.31,-355.61 -159.15,-353.26 -158.24,-350.83 -157.26,-347.15"/>
    </edge>
    <edge id=":234_0" function="internal">
        <lane id=":234_0_0" index="0" disallow="pedestrian tram rail_urban rail rail_electric rail_fast ship" speed="11.20" length="28.72" width="3.50" shape="-300.11,-389.12 -300.66,-391.35 -301.36,-393.52 -302.24,-395.58 -303.33,-397.49 -304.66,-399.24 -305.38,-399.99 -306.18,-400.69 -307.03,-401.31 -307.93,-401.86 -308.88,-402.33 -309.87,-402.71 -310.87,-403.02 -313.04,-403.42 -315.25,-403.53 -317.49,-403.42 -320.91,-402.88"/>
    </edge>
    <edge id=":234_1" function="internal">
        <lane id=":234_1_0" index="0" disallow="pedestrian tram rail_urban rail rail_electric rail_fast ship" speed="36.11" length="38.81" width="3.50" shape="-300.11,-389.12 -304.09,-408.10 -308.07,-427.11"/>
    </edge>
    <edge id=":234_2" function="internal">
        <lane id=":234_2_0" index="0" disallow="pedestrian tram rail_urban rail rail_electric rail_fast ship" speed="12.23" length="34.39" width="3.50" shape="-300.11,-389.12 -300.55,-391.65 -300.80,-394.22 -300.81,-396.83 -300.52,-399.47 -299.87,-402.04 -299.38,-403.35 -298.79,-404.58 -298.09,-405.76 -297.29,-406.87 -296.40,-407.91 -295.43,-408.86 -294.37,-409.75 -292.18,-411.21 -289.82,-412.39 -287.38,-413.32 -283.68,-414.30"/>
    </edge>
    <edge id=":234_3" function="internal">
        <lane id=":234_3_0" index="0" disallow="pedestrian tram rail_urban rail rail_electric rail_fast ship" speed="11.22" length="28.81" width="3.50" shape="-282.96,-410.88 -286.17,-410.02 -288.24,-409.24 -290.22,-408.25 -292.07,-407.02 -292.92,-406.31 -293.71,-405.53 -294.43,-404.69 -295.08,-403.79 -295.64,-402.83 -296.12,-401.84 -296.51,-400.80 -297.05,-398.65 -297.29,-396.45 -297.28,-394.23 -297.07,-392.03 -296.69,-389.84"/>
    </edge>
    <edge id=":234_4" function="internal">