<routes>
	<vehicle depart="0.1" departLane="0" departPos="97.136092682423" departSpeed="16.0" id="200" type="passenger">
		<route edges="47238 47242 47246"/>
	</vehicle>
	<vehicle depart="0.1" departLane="1" departPos="111.78058461063489" departSpeed="10.0" id="201" type="passenger">
		<route edges="47238 47242 47246"/>
	</vehicle>
	<vehicle depart="0.1" departLane="0" departPos="124.10437265701012" departSpeed="10.0" id="202" type="passenger">
		<route edges="47238 47242 47246"/>
	</vehicle>
	<vehicle depart="0.1" departLane="0" departPos="0" departSpeed="12.0" id="203" type="passenger">
		<route edges="47238 47242 47246"/>
	</vehicle>
</routes>
