<?xml version="1.0" encoding="UTF-8"?>

<!-- generated on Fri Dec 18 15:40:34 2020 by Eclipse SUMO netconvert Version 1.8.0
<configuration xmlns:xsi="http://www.w3.org/2001/XMLSchema-instance" xsi:noNamespaceSchemaLocation="http://sumo.dlr.de/xsd/netconvertConfiguration.xsd">

    <input>
        <node-files value="./converted_scenarios/hand-crafted/DEU_Gar-1_2_I-1-1/nodes.net.xml"/>
        <edge-files value="./converted_scenarios/hand-crafted/DEU_Gar-1_2_I-1-1/edges.net.xml"/>
        <connection-files value="./converted_scenarios/hand-crafted/DEU_Gar-1_2_I-1-1/_connections.net.xml"/>
        <tllogic-files value="./converted_scenarios/hand-crafted/DEU_Gar-1_2_I-1-1/_tll.net.xml"/>
    </input>

    <output>
        <output-file value="./converted_scenarios/hand-crafted/DEU_Gar-1_2_I-1-1/DEU_Gar-1_2_I-1-1.net.xml"/>
    </output>

    <processing>
        <plain.extend-edge-shape value="true"/>
        <geometry.remove.keep-edges.explicit value="true"/>
        <geometry.avoid-overlap value="true"/>
        <offset.disable-normalization value="true"/>
    </processing>

    <junctions>
        <no-turnarounds value="true"/>
        <junctions.internal-link-detail value="20"/>
    </junctions>

    <report>
        <aggregate-warnings value="5"/>
    </report>

    <random_number>
        <seed value="1234"/>
    </random_number>

</configuration>
-->

<net version="1.6" junctionCornerDetail="5" junctionLinkDetail="20" limitTurnSpeed="5.50" xmlns:xsi="http://www.w3.org/2001/XMLSchema-instance" xsi:noNamespaceSchemaLocation="http://sumo.dlr.de/xsd/net_file.xsd">

    <location netOffset="0.00,0.00" convBoundary="-98.01,-16.22,330.22,-0.64" origBoundary="-98.02,-16.22,330.22,1.09" projParameter="!"/>

    <edge id=":2_0" function="internal">
        <lane id=":2_0_0" index="0" disallow="bus truck rail_fast" speed="36.11" length="3.27" width="3.00" shape="76.82,-1.92 80.06,-1.90"/>
        <lane id=":2_0_1" index="1" disallow="bus truck rail_fast" speed="36.11" length="3.27" width="2.24" shape="76.73,0.68 76.98,0.68 77.20,0.67 77.40,0.67 77.58,0.66 77.75,0.65 77.90,0.64 78.04,0.64 78.18,0.63 78.31,0.61 78.44,0.60 78.57,0.59 78.71,0.57 78.85,0.55 79.00,0.53 79.17,0.51 79.35,0.49 79.55,0.46 79.77,0.43 80.01,0.40"/>
    </edge>
    <edge id=":3_0" function="internal">
        <lane id=":3_0_0" index="0" disallow="bus truck rail_fast" speed="36.11" length="7.97" width="3.93" shape="94.52,-1.33 102.49,-1.44"/>
        <lane id=":3_0_1" index="1" disallow="bus truck rail_fast" speed="36.11" length="7.97" width="3.93" shape="94.53,-1.03 102.49,-1.44"/>
    </edge>

    <edge id="47238" from="1" to="2" priority="1" spreadType="center" length="176.21">
        <lane id="47238_0" index="0" disallow="bus truck rail_fast" speed="36.11" length="176.21" width="2.68" customShape="1" shape="-97.92,-8.00 -55.85,-5.31 -13.70,-3.47 8.62,-2.59 30.71,-1.96 56.13,-1.68 76.82,-1.92"/>
        <lane id="47238_1" index="1" disallow="rail_fast" speed="36.11" length="176.21" width="2.24" customShape="1" shape="-98.10,-5.10 -56.00,-2.43 -55.87,-2.42 -13.78,-0.47 30.69,1.04 56.16,1.09 76.73,0.68"/>
    </edge>
    <edge id="47242" from="2" to="3" priority="1" spreadType="center" length="20.26">
        <lane id="47242_0" index="0" disallow="bus truck rail_fast" speed="36.11" length="20.26" width="3.00" customShape="1" shape="80.06,-1.90 82.25,-1.85 82.53,-1.84 85.69,-1.72 86.70,-1.67 89.60,-1.49 94.26,-1.34 94.41,-1.33 94.52,-1.33"/>
        <lane id="47242_1" index="1" disallow="bus truck rail_fast" speed="36.11" length="20.26" width="2.24" customShape="1" shape="80.01,0.40 82.12,0.12 82.58,0.04 85.97,-0.29 86.18,-0.31 86.38,-0.33 90.92,-0.75 92.04,-0.84 94.53,-1.03"/>
    </edge>
    <edge id="47246" from="3" to="4" priority="1" spreadType="center" length="232.22">
        <lane id="47246_0" index="0" disallow="bus truck rail_fast" speed="36.11" length="232.22" width="3.93" customShape="1" shape="102.49,-1.44 109.59,-1.76 123.24,-2.36 143.20,-3.41 143.64,-3.44 166.61,-5.16 166.82,-5.17 194.07,-7.32 217.49,-9.29 238.74,-10.92 238.94,-10.94 261.21,-12.66 261.83,-12.71 284.61,-14.06 284.78,-14.07 307.06,-15.43 307.64,-15.45 330.22,-16.22"/>
    </edge>

    <junction id="1" type="dead_end" x="-98.01" y="-6.55" incLanes="" intLanes="" shape="-98.17,-3.98 -97.83,-9.34"/>
    <junction id="2" type="priority" x="78.15" y="-0.64" incLanes="47238_0 47238_1" intLanes=":2_0_0 :2_0_1" shape="79.98,1.53 80.10,-3.40 76.86,-3.26 76.69,1.80 77.92,1.77 78.34,1.74 78.77,1.69 79.29,1.62">
        <request index="0" response="00" foes="00" cont="0"/>
        <request index="1" response="00" foes="00" cont="0"/>
    </junction>
    <junction id="3" type="priority" x="98.51" y="-1.27" incLanes="47242_0 47242_1" intLanes=":3_0_0 :3_0_1" shape="102.58,0.52 102.40,-3.41 99.46,-3.14 98.43,-2.99 97.40,-2.86 96.15,-2.80 94.49,-2.83 94.55,0.09 97.57,0.10 98.60,0.25 99.63,0.42 100.88,0.53">
        <request index="0" response="10" foes="10" cont="0"/>
        <request index="1" response="00" foes="01" cont="0"/>
    </junction>
    <junction id="4" type="dead_end" x="330.22" y="-16.22" incLanes="47246_0" intLanes="" shape="330.15,-18.18 330.29,-14.26"/>

    <connection from="47238" to="47242" fromLane="0" toLane="0" contPos="-4.00" via=":2_0_0" dir="s" state="M"/>
    <connection from="47238" to="47242" fromLane="1" toLane="1" contPos="-4.00" via=":2_0_1" dir="s" state="M"/>
    <connection from="47242" to="47246" fromLane="0" toLane="0" contPos="-4.00" via=":3_0_0" dir="s" state="m"/>
    <connection from="47242" to="47246" fromLane="1" toLane="0" contPos="-4.00" via=":3_0_1" dir="s" state="M"/>

    <connection from=":2_0" to="47242" fromLane="0" toLane="0" dir="s" state="M"/>
    <connection from=":2_0" to="47242" fromLane="1" toLane="1" dir="s" state="M"/>
    <connection from=":3_0" to="47246" fromLane="0" toLane="0" dir="s" state="M"/>
    <connection from=":3_0" to="47246" fromLane="1" toLane="0" dir="s" state="M"/>

</net>
