<!-- generated on 2020-12-18 15:40:34.224764 by ipykernel_launcher.py v1_2_0+5214-53edc58fcd
-->
<edges>
	<edge from="1" function="normal" id="47238" length="176.2066590393216" numLanes="2" priority="1" speed="36.11111111111111" spreadType="center" to="2">
		<lane allow="pedestrian rail private passenger ship delivery vip emergency bicycle rail_electric army rail_urban trailer coach custom2 tram taxi evehicle custom1 motorcycle authority hov moped" index="0" length="176.2066590393216" shape="-98.02235,-8.009699999999999 -55.8472,-5.3116 -13.699200000000001,-3.47095 -13.65115,-3.46885 8.619499999999999,-2.58915 30.7145,-1.957455 30.765549999999998,-1.9566750000000002 56.12735,-1.68052 78.2582,-1.939735" speed="36.11111111111111" width="2.6773634941860256"/>
		<lane allow="pedestrian rail private passenger ship delivery vip emergency bicycle rail_electric army rail_urban trailer coach bus custom2 tram taxi evehicle custom1 motorcycle authority truck hov moped" index="1" length="176.2066590393216" shape="-97.99680000000001,-5.093 -55.9976,-2.42549 -55.8743,-2.418525 -13.7848,-0.4748 30.6865,1.0404 56.15535,1.08844 78.05005,0.655565" speed="36.11111111111111" width="2.240306481466321"/>
	</edge>
	<edge from="2" function="normal" id="47242" length="20.261387911568576" numLanes="2" priority="1" speed="36.11111111111111" spreadType="center" to="3">
		<lane allow="pedestrian rail private passenger ship delivery vip emergency bicycle rail_electric army rail_urban trailer coach custom2 tram taxi evehicle custom1 motorcycle authority hov moped" index="0" length="20.261387911568576" shape="78.2582,-1.939735 82.2533,-1.846725 82.5313,-1.84324 85.69139999999999,-1.7220330000000001 86.69704999999999,-1.667168 89.59700000000001,-1.485335 89.65775,-1.48221 94.26175,-1.34077 94.41215,-1.33398 94.564,-1.3316 96.39275,-1.286315 98.5059,-1.26742" speed="36.11111111111111" width="2.997388963231165"/>
		<lane allow="pedestrian rail private passenger ship delivery vip emergency bicycle rail_electric army rail_urban trailer coach custom2 tram taxi evehicle custom1 motorcycle authority hov moped" index="1" length="20.261387911568576" shape="78.05005,0.655565 82.1221,0.11865000000000003 82.57765,0.03634999999999999 85.9722,-0.29455 86.1782,-0.30825 86.3845,-0.3345999999999999 90.91575,-0.7451500000000001 92.03614999999999,-0.83995 94.55615,-1.0338500000000002 95.9282,-1.1196000000000002 98.5059,-1.26742" speed="36.11111111111111" width="2.240306481466321"/>
	</edge>
	<edge from="3" function="normal" id="47246" length="232.22448774010766" numLanes="1" priority="1" speed="36.11111111111111" spreadType="center" to="4">
		<lane allow="pedestrian rail private passenger ship delivery vip emergency bicycle rail_electric army rail_urban trailer coach custom2 tram taxi evehicle custom1 motorcycle authority hov moped" index="0" length="232.22448774010766" shape="98.5059,-1.26742 109.5918,-1.760025 109.66395,-1.762705 123.23740000000001,-2.357045 123.27265,-2.358665 123.30795,-2.36014 143.2046,-3.40855 143.63535,-3.43625 166.60915,-5.1551 166.81545,-5.171200000000001 194.0666,-7.316450000000001 217.48585,-9.2859 238.73579999999998,-10.91965 238.9422,-10.9358 261.21415,-12.66345 261.82945,-12.708400000000001 284.61215,-14.06395 284.77855,-14.0732 307.06264999999996,-15.42695 307.63665000000003,-15.4545 330.2189,-16.21915" speed="36.11111111111111" width="3.9287147799884887"/>
	</edge>
</edges>
