<!-- generated on 2020-12-18 15:40:34.299068 by ipykernel_launcher.py v1_2_0+5214-53edc58fcd
-->
<nodes>
	<node id="1" type="from" x="-98.00957500000001" y="-6.551349999999999"/>
	<node id="2" type="to" x="78.154125" y="-0.642085"/>
	<node id="3" type="to" x="98.5059" y="-1.26742"/>
	<node id="4" type="to" x="330.2189" y="-16.21915"/>
</nodes>
