<routes>
	<vehicle depart="0.1" departLane="1" departPos="82.58411620388353" departSpeed="16.153464" id="1" type="passenger">
		<route edges="26 26 27 24"/>
	</vehicle>
	<vehicle depart="0.1" departLane="0" departPos="0" departSpeed="10.416069" id="2" type="passenger">
		<route edges="26 27 24"/>
	</vehicle>
	<vehicle depart="0.1" departLane="0" departPos="0" departSpeed="10.416753" id="3" type="passenger">
		<route edges="26 27 24"/>
	</vehicle>
</routes>
