<routes>
	<vehicle depart="0.1" departLane="0" departPos="10.178586726701306" departSpeed="10.259773" id="312" type="passenger">
		<route edges=":37_2 141418 141400"/>
	</vehicle>
	<vehicle depart="0.1" departLane="0" departPos="14.66101588850812" departSpeed="1.3391331" id="314" type="passenger">
		<route edges=":37_1 141382"/>
	</vehicle>
	<vehicle depart="0.1" departLane="0" departPos="13.056675751337272" departSpeed="6.8249821" id="338" type="passenger">
		<route edges=":40_3 141424 141421"/>
	</vehicle>
	<vehicle depart="0.1" departLane="0" departPos="16.088061506772462" departSpeed="1.4700715" id="343" type="passenger">
		<route edges="141403 141418"/>
	</vehicle>
	<vehicle depart="0.1" departLane="0" departPos="7.428730971931179" departSpeed="0.0" id="347" type="passenger">
		<route edges="141403 141382"/>
	</vehicle>
	<vehicle depart="0.1" departLane="0" departPos="17.619426655440265" departSpeed="10.260752" id="354" type="passenger">
		<route edges=":38_0 141425 141383"/>
	</vehicle>
	<vehicle depart="0.1" departLane="0" departPos="17.68515806733558" departSpeed="11.252563" id="33" type="motorcycle">
		<route edges=":37_2 141418 141400"/>
	</vehicle>
</routes>
