<!-- generated on 2020-12-18 15:55:16.790695 by ipykernel_launcher.py v1_2_0+5214-53edc58fcd
-->
<edges>
	<edge from="1" function="normal" id="15" length="66.02177725179142" numLanes="5" priority="1" speed="36.11111111111111" spreadType="center" to="2">
		<lane allow="moped bicycle pedestrian custom1 trailer evehicle rail_urban ship private vip custom2 authority delivery rail_electric taxi tram army hov coach motorcycle passenger rail emergency" index="0" length="66.02177725179142" shape="-31.4741,34.00785 -28.755850000000002,31.46575 -25.2377,28.221400000000003 -22.3322,25.5273 -14.520199999999999,18.41055 -13.93995,17.8729 -11.578199999999999,15.701250000000002 -4.2713,9.086 -3.4718999999999998,8.3536 -0.5527,5.63735 2.50955,2.8880999999999997 7.32295,-1.2811000000000001 10.27045,-3.926 11.818850000000001,-5.2654499999999995 17.756999999999998,-10.42945 17.76645,-10.4377" speed="36.11111111111111" width="3.5403686884277996"/>
		<lane allow="moped bicycle pedestrian custom1 trailer evehicle rail_urban ship private truck vip custom2 authority delivery rail_electric taxi tram army hov coach motorcycle passenger rail emergency" index="1" length="66.02177725179142" shape="-29.1283,36.57195 -24.99975,32.78575 -22.8522,30.794449999999998 -22.09545,30.0888 -19.9694,28.12565 -14.3165,22.997300000000003 -12.111350000000002,20.976599999999998 -11.42265,20.33445 -9.24455,18.345750000000002 -3.1108000000000002,12.83145 -1.04,10.93015 -0.21770000000000006,10.16335 1.82075,8.3063 7.6447,3.1872 9.68085,1.35405 10.5312,0.5610999999999999 12.530650000000001,-1.24575 18.6436,-6.5735 20.0418,-7.8307" speed="36.11111111111111" width="3.250550685653124"/>
		<lane allow="moped bicycle pedestrian custom1 trailer evehicle rail_urban ship private truck vip custom2 authority delivery rail_electric taxi tram army hov coach motorcycle passenger bus rail emergency" index="2" length="66.02177725179142" shape="-26.875700000000002,39.0341 -25.6206,37.8364 -22.7573,35.24385 -19.8504,32.58075 -17.239800000000002,30.2117 -14.3287,27.52375 -12.082699999999999,25.477600000000002 -9.17895,22.80625 -6.451549999999999,20.3489 -3.52585,17.67755 -0.8802500000000001,15.30845 2.01995,12.65635 4.5838,10.364799999999999 7.51235,7.696899999999999 9.77585,5.73035 12.70365,3.1286500000000004 15.4665,0.7436499999999999 18.4052,-1.9121000000000001 20.8447,-4.05495 22.236199999999997,-5.31645" speed="36.11111111111111" width="3.1897109727998862"/>
		<lane allow="moped bicycle pedestrian custom1 trailer evehicle rail_urban ship private vip custom2 authority delivery rail_electric taxi tram army hov coach motorcycle passenger rail emergency" index="3" length="66.02177725179142" shape="-24.616,41.5041 -23.40145,40.3329 -23.2218,40.165099999999995 -15.23085,32.913 -14.968,32.67175 -12.35275,30.232999999999997 -12.08945,29.9895 -4.38265,22.957050000000002 -4.2128499999999995,22.800600000000003 -1.5001499999999999,20.271 -1.3669,20.14945 6.64325,12.9816 6.8203499999999995,12.81925 9.51875,10.30295 9.640350000000002,10.193100000000001 17.67755,3.27135 17.761850000000003,3.1952 20.615850000000002,0.5360499999999999 20.73405,0.4298 24.4533,-2.7762000000000002" speed="36.11111111111111" width="3.2118758662189935"/>
		<lane allow="moped bicycle pedestrian custom1 trailer evehicle rail_urban ship private truck vip custom2 authority delivery rail_electric taxi tram army hov coach motorcycle passenger bus rail emergency" index="4" length="66.02177725179142" shape="-22.2785,44.05905 -20.8631,42.739149999999995 -20.5601,42.4594 -12.91465,35.4648 -12.623899999999999,35.1963 -10.0032,32.75255 -9.702,32.4741 -2.0787,25.4816 -1.7882,25.212899999999998 0.8309,22.77075 1.15185,22.47855 8.9297,15.53725 9.22205,15.27055 11.859100000000002,12.81265 12.195450000000001,12.51025 20.0459,5.65105 20.339599999999997,5.385949999999999 22.9907,2.91615 23.353450000000002,2.5974 26.6888,-0.21484999999999999" speed="36.11111111111111" width="3.4793965583129514"/>
	</edge>
	<edge from="2" function="normal" id="11" length="119.95393551591239" numLanes="6" priority="1" speed="36.11111111111111" spreadType="center" to="3">
		<lane allow="moped bicycle pedestrian custom1 trailer evehicle rail_urban ship private truck vip custom2 authority delivery rail_electric taxi tram army hov coach motorcycle passenger rail emergency" index="0" length="119.95393551591239" shape="15.3002,-13.2634 17.46445,-15.1184 18.187849999999997,-15.76425 20.8577,-18.07825 21.58105,-18.7241 24.28315,-21.102400000000003 25.0065,-21.7483 27.7239,-24.1369 28.44725,-24.78275 31.1171,-27.0968 31.8405,-27.74265 32.56745,-28.373849999999997 34.570949999999996,-30.11625 35.29385,-30.7627 37.9773,-33.12345 38.7002,-33.7699 41.452349999999996,-36.1683 42.175250000000005,-36.814750000000004 44.74695,-39.0407 45.4698,-39.68715 48.18665,-42.0187 48.909549999999996,-42.6651 51.75345,-45.1761 52.47635,-45.82255 55.135400000000004,-48.17555 55.8583,-48.822 58.671350000000004,-51.243700000000004 59.39425,-51.890100000000004 62.02455,-54.1921 62.7474,-54.83855 65.4553,-57.2071 66.09985,-57.784 66.1817,-57.85635 69.00685,-60.23795 69.73044999999999,-60.8835 72.35125,-63.2403 73.0749,-63.885799999999996 75.7458,-66.19885 76.46940000000001,-66.84440000000001 79.26225,-69.2923 79.98585,-69.93785 82.4961,-72.10085000000001 83.21975,-72.7464 85.99475000000001,-75.17175 86.71835,-75.81729999999999 89.41495,-78.07884999999999 90.1386,-78.72444999999999 92.8802,-81.17895 93.60385,-81.8245 94.26204999999999,-82.39555 96.33795,-84.19745 97.06145000000001,-84.84315000000001 99.71325,-87.1285 100.43675,-87.77425 103.13155,-90.09559999999999 103.855,-90.7413 105.59045,-92.24629999999999" speed="36.11111111111111" width="3.6814288122955743"/>
		<lane allow="moped bicycle pedestrian custom1 trailer evehicle rail_urban ship private vip custom2 authority delivery rail_electric taxi tram army hov coach motorcycle passenger rail emergency" index="1" length="119.95393551591239" shape="17.76645,-10.4377 18.3723,-10.954550000000001 19.952849999999998,-12.35755 20.66575,-13.0151 21.3049,-13.58555 23.14965,-15.111650000000001 23.804250000000003,-15.666400000000001 23.9172,-15.7575 24.509500000000003,-16.25635 24.69095,-16.4214 26.78425,-18.3151 26.805750000000003,-18.33485 27.50405,-18.9791 27.597,-19.0627 30.160400000000003,-21.316650000000003 30.841299999999997,-21.92455 30.9108,-21.9848 33.569050000000004,-24.291 34.2342,-24.884999999999998 34.297650000000004,-24.9403 34.76875,-25.3507 37.03605,-27.386499999999998 37.6756,-27.97635 37.69985,-27.99775 43.8348,-33.275800000000004 44.50945,-33.866 44.607600000000005,-33.94945 45.515600000000006,-34.72245 45.580299999999994,-34.782399999999996 47.248599999999996,-36.271950000000004 47.96145,-36.92955 48.47795000000001,-37.38355 50.6275,-39.2175 51.28255,-39.79975 51.33435,-39.8451 54.166650000000004,-42.33185 54.85705,-42.9451 54.9067,-42.9885 56.5184,-44.4069 57.626599999999996,-45.419 58.33955,-46.0766 59.49295,-47.0981 61.08855,-48.457449999999994 61.732749999999996,-49.02745 61.8023,-49.08765 64.4311,-51.366 65.09960000000001,-51.95705 65.171,-52.0188 67.4923,-54.0296 67.51335,-54.048 67.9045,-54.3886 68.63495,-55.039 70.5732,-56.669 71.4653,-57.42375 72.1326,-58.02005 74.7283,-60.3577 74.77799999999999,-60.401650000000004 75.47274999999999,-61.0235 75.54265000000001,-61.0841 78.19945,-63.390299999999996 78.34615,-63.520849999999996 78.8523,-63.972500000000004 78.90935,-64.02245 81.4048,-66.20705000000001 81.73089999999999,-66.4964 82.45070000000001,-67.1464 84.9474,-69.3242 85.6391,-69.94885 85.68115,-69.9859 88.4274,-72.41624999999999 89.1472,-73.06625 90.09725,-73.8698 91.82159999999999,-75.31514999999999 92.4824,-75.90365 92.9419,-76.31335 95.18690000000001,-78.3044 95.922,-78.95375000000001 96.00525,-79.0252 98.74435,-81.37905 99.39505,-81.95315 99.4879,-82.03245000000001 100.9136,-83.25035 102.15875,-84.3213 102.81575000000001,-84.90639999999999 102.89665,-84.976 103.9076,-85.8469 105.5879,-87.30935 106.3083,-87.9587 108.01905,-89.45685" speed="36.11111111111111" width="3.504353214217994"/>
		<lane allow="moped bicycle pedestrian custom1 trailer evehicle rail_urban ship private vip custom2 authority delivery rail_electric taxi tram army hov coach motorcycle passenger rail emergency" index="2" length="119.95393551591239" shape="20.0418,-7.8307 20.64775,-8.3768 21.53005,-9.1996 23.40615,-10.86755 23.569000000000003,-11.000499999999999 26.940649999999998,-13.770800000000001 29.4649,-16.0089 29.5718,-16.10755 29.941499999999998,-16.4481 29.99785,-16.49785 32.564750000000004,-18.81555 37.02405,-22.664099999999998 39.89375,-25.22135 40.011700000000005,-25.322049999999997 40.6495,-25.8664 40.72585,-25.936799999999998 43.62305,-28.5006 47.807950000000005,-32.0551 50.65275,-34.599000000000004 50.750150000000005,-34.68315 51.7556,-35.5527 54.70595,-38.204 58.814,-41.72715 61.67345,-44.2714 61.785399999999996,-44.36725 62.89905,-45.3221 62.95815,-45.3768 65.8558,-47.9673 69.8215,-51.437 72.79535000000001,-54.0553 73.91835,-55.0472 76.89644999999999,-57.64465 80.71119999999999,-60.974450000000004 83.70695,-63.580600000000004 84.81445,-64.55735 87.78435,-67.17515 92.31025,-71.17845 92.34075,-71.20500000000001 95.32225,-73.80619999999999 95.91485,-74.31845 98.91650000000001,-76.90485000000001 103.201,-80.59049999999999 106.18945,-83.1839 110.32105,-86.8128" speed="36.11111111111111" width="3.216879682238673"/>
		<lane allow="moped bicycle pedestrian custom1 trailer evehicle rail_urban ship private truck vip custom2 authority delivery rail_electric taxi tram army hov coach motorcycle passenger rail emergency" index="3" length="119.95393551591239" shape="22.236199999999997,-5.31645 23.706899999999997,-6.6495 23.80715,-6.7357499999999995 26.68345,-9.2204 29.6456,-11.8499 31.78095,-13.654499999999999 34.617599999999996,-16.1737 34.736149999999995,-16.2745 37.74895,-18.83615 40.70685,-21.47285 42.8488,-23.322499999999998 45.71,-25.9073 45.800799999999995,-25.985950000000003 48.8643,-28.64225 51.81735,-31.282899999999998 53.85925,-33.00565 56.72205,-35.52365 56.854150000000004,-35.63455 59.989850000000004,-38.272999999999996 62.95005,-40.907650000000004 65.11465000000001,-42.76805 67.97120000000001,-45.340599999999995 68.04220000000001,-45.403000000000006 71.22205,-48.204899999999995 74.15010000000001,-50.87495 76.03335,-52.5266 76.07034999999999,-52.55865 79.06055,-55.147949999999994 82.28129999999999,-57.9384 82.2925,-57.9482 85.283,-60.5497 87.05525,-62.1122 90.02844999999999,-64.7311 93.2238,-67.55555 96.20975000000001,-70.1603 98.0924,-71.8261 101.06435,-74.44635 104.46355,-77.438 107.4562,-80.03505 112.4625,-84.35319999999999" speed="36.11111111111111" width="3.1175293182262114"/>
		<lane allow="moped bicycle pedestrian custom1 trailer evehicle rail_urban ship private vip custom2 authority delivery rail_electric taxi tram army hov coach motorcycle passenger rail emergency" index="4" length="119.95393551591239" shape="24.4533,-2.7762000000000002 28.762050000000002,-6.49025 28.95455,-6.665649999999999 31.626549999999998,-9.1573 31.6877,-9.21435 31.814300000000003,-9.32225 39.9545,-16.261899999999997 40.123400000000004,-16.414749999999998 42.90535,-19.005200000000002 43.06675,-19.14995 51.0758,-26.027 51.14895,-26.0943 53.932950000000005,-28.6904 62.182249999999996,-35.739000000000004 62.3031,-35.8493 65.11705,-38.4714 65.247,-38.58715 73.39765,-45.585499999999996 73.51464999999999,-45.69225 76.25354999999999,-48.246300000000005 84.2235,-55.1631 84.50505000000001,-55.40685 87.21035,-57.7585 87.49825,-58.0094 95.2792,-64.8798 95.40325,-64.98925 95.4366,-65.01825 98.3134,-67.51945 98.4424,-67.63315 106.54785,-74.86904999999999 106.5797,-74.8975 106.63,-74.9413 109.56015,-77.48885 109.6215,-77.54220000000001 114.6254,-81.869" speed="36.11111111111111" width="3.2654832184532787"/>
		<lane allow="moped bicycle pedestrian custom1 trailer evehicle rail_urban ship private vip custom2 authority delivery rail_electric taxi tram army hov coach motorcycle passenger rail emergency" index="5" length="119.95393551591239" shape="26.6888,-0.21484999999999999 31.02185,-3.8684000000000003 31.253750000000004,-4.07115 31.37875,-4.1874 33.989999999999995,-6.6168 34.3424,-6.93025 42.4127,-13.85835 42.6549,-14.0731 42.7581,-14.1692 45.36845,-16.59955 45.733850000000004,-16.92055 53.370850000000004,-23.35485 53.60235,-23.5571 53.72825,-23.6742 56.33955,-26.10355 56.67525,-26.4063 64.57205,-33.3416 64.8272,-33.57145 64.90255,-33.64165 67.512,-36.07295 67.87180000000001,-36.39035 75.63885,-42.974900000000005 75.87385,-43.18125 75.99225000000001,-43.2915 78.60329999999999,-45.72115 78.9437,-46.02695 86.4621,-52.58395 86.85050000000001,-52.92215 89.45015000000001,-55.18195 89.83109999999999,-55.5139 97.60355,-62.30315 97.99080000000001,-62.640550000000005 100.59045,-64.90045 100.9306,-65.1997 100.96279999999999,-65.22835 108.8706,-72.27565000000001 109.2432,-72.60345000000001 111.8429,-74.86335 112.2305,-75.2005 116.89525,-79.2619" speed="36.11111111111111" width="3.479158429850529"/>
	</edge>
	<edge from="4" function="normal" id="12" length="66.49263851479073" numLanes="1" priority="1" speed="36.11111111111111" spreadType="center" to="2">
		<lane allow="moped bicycle pedestrian custom1 trailer evehicle rail_urban ship private truck vip custom2 authority delivery rail_electric taxi tram army hov coach motorcycle passenger rail emergency" index="0" length="66.49263851479073" shape="-35.74465,29.33995 -35.17165,28.8842 -30.0435,24.710250000000002 -22.3219,18.424500000000002 -20.667749999999998,17.057850000000002 -12.11615,9.954550000000001 -0.27109999999999995,0.16915000000000002 0.05010000000000003,-0.09630000000000005 5.90695,-5.07805 9.366900000000001,-8.08295 15.3002,-13.2634" speed="36.11111111111111" width="3.6400067087850245"/>
	</edge>
</edges>
