<routes>
	<vehicle depart="0.1" departLane="0" departPos="20.410403180194752" departSpeed="0.10499675" id="336" type="bus">
		<route edges="67777 68265"/>
	</vehicle>
	<vehicle depart="0.1" departLane="0" departPos="35.99736666822257" departSpeed="10.226303" id="337" type="bus">
		<route edges=":17_1 67776"/>
	</vehicle>
	<vehicle depart="0.1" departLane="0" departPos="69.92643409687832" departSpeed="0.0" id="312" type="passenger">
		<route edges="66725 68265"/>
	</vehicle>
	<vehicle depart="0.1" departLane="0" departPos="36.78672233317743" departSpeed="0.17191747" id="324" type="passenger">
		<route edges="67777 68265"/>
	</vehicle>
	<vehicle depart="0.1" departLane="0" departPos="29.28642901354398" departSpeed="0.012410851" id="330" type="passenger">
		<route edges="67777 68265"/>
	</vehicle>
	<vehicle depart="0.1" departLane="0" departPos="27.747571854480366" departSpeed="9.0768502" id="342" type="passenger">
		<route edges=":17_0 68265"/>
	</vehicle>
	<vehicle depart="0.1" departLane="1" departPos="43.288126006675135" departSpeed="7.4430155" id="343" type="passenger">
		<route edges="67084 66724"/>
	</vehicle>
	<vehicle depart="0.1" departLane="1" departPos="25.269072013054142" departSpeed="8.7560863" id="346" type="passenger">
		<route edges="67084 66724"/>
	</vehicle>
	<vehicle depart="0.1" departLane="1" departPos="9.57651293977806" departSpeed="8.448963" id="348" type="passenger">
		<route edges="67084 66724"/>
	</vehicle>
	<vehicle depart="0.1" departLane="0" departPos="46.72856640063307" departSpeed="7.1975204" id="345" type="motorcycle">
		<route edges="67084 68265"/>
	</vehicle>
</routes>
