<routes>
	<vehicle depart="0.1" departLane="0" departPos="30.87047028580352" departSpeed="1.6596297" id="36" type="passenger">
		<route edges="14331 14477"/>
	</vehicle>
	<vehicle depart="0.1" departLane="0" departPos="19.338963595223746" departSpeed="0.97181954" id="313" type="passenger">
		<route edges=":49_3 14477"/>
	</vehicle>
	<vehicle depart="0.1" departLane="0" departPos="18.417976266341196" departSpeed="1.1263351" id="320" type="passenger">
		<route edges=":52_5 14476"/>
	</vehicle>
	<vehicle depart="0.1" departLane="0" departPos="17.637940214061484" departSpeed="0.88290472" id="323" type="passenger">
		<route edges="14015 14114"/>
	</vehicle>
	<vehicle depart="0.1" departLane="0" departPos="6.634932084790738" departSpeed="3.0961332" id="333" type="passenger">
		<route edges=":51_4 14016"/>
	</vehicle>
	<vehicle depart="0.1" departLane="0" departPos="4.712576745755381" departSpeed="7.7667255" id="334" type="passenger">
		<route edges=":52_3 14108"/>
	</vehicle>
	<vehicle depart="0.1" departLane="0" departPos="20.097824842088997" departSpeed="14.742435" id="329" type="motorcycle">
		<route edges=":49_4 14332 14384"/>
	</vehicle>
</routes>
