<routes>
	<vehicle depart="0.1" departLane="0" departPos="22.60460038277844" departSpeed="2.4345832" id="32" type="passenger">
		<route edges=":45_2 34742 34745"/>
	</vehicle>
	<vehicle depart="0.1" departLane="0" departPos="13.071886156711553" departSpeed="0.048046291" id="317" type="passenger">
		<route edges=":46_3 34919"/>
	</vehicle>
	<vehicle depart="0.1" departLane="0" departPos="68.7161064169733" departSpeed="0.62442363" id="319" type="passenger">
		<route edges="34736 34919"/>
	</vehicle>
	<vehicle depart="0.1" departLane="0" departPos="62.07043944526239" departSpeed="0.48705797" id="323" type="passenger">
		<route edges="34920 34739"/>
	</vehicle>
	<vehicle depart="0.1" departLane="0" departPos="29.92338683714298" departSpeed="8.8749486" id="327" type="passenger">
		<route edges=":47_4 34741 34738 34919"/>
	</vehicle>
	<vehicle depart="0.1" departLane="0" departPos="12.576182082291197" departSpeed="1.6521621" id="31" type="truck">
		<route edges=":45_2 34742"/>
	</vehicle>
</routes>
