<routes>
	<vehicle depart="0.1" departLane="0" departPos="7.64513236542098" departSpeed="0.83128896" id="316" type="passenger">
		<route edges=":34_4 4502"/>
	</vehicle>
	<vehicle depart="0.1" departLane="0" departPos="60.61535836637953" departSpeed="1.3447758" id="318" type="passenger">
		<route edges="4726 4502"/>
	</vehicle>
	<vehicle depart="0.1" departLane="0" departPos="52.04681998320344" departSpeed="0.41198842" id="328" type="passenger">
		<route edges="4726 4502"/>
	</vehicle>
	<vehicle depart="0.1" departLane="0" departPos="42.99781653512222" departSpeed="0.16526577" id="334" type="passenger">
		<route edges="4726 4502"/>
	</vehicle>
	<vehicle depart="0.1" departLane="0" departPos="28.342284900969826" departSpeed="0.53437451" id="342" type="passenger">
		<route edges="4726 4502"/>
	</vehicle>
	<vehicle depart="0.1" departLane="0" departPos="2.5" departSpeed="12.715523" id="364" type="passenger">
		<route edges=":34_0 4725"/>
	</vehicle>
	<vehicle depart="0.1" departLane="0" departPos="41.625184330448256" departSpeed="11.568406" id="365" type="passenger">
		<route edges="4499 4502"/>
	</vehicle>
	<vehicle depart="0.1" departLane="0" departPos="21.201247691402973" departSpeed="11.755412" id="362" type="motorcycle">
		<route edges=":34_1 4502 4875"/>
	</vehicle>
</routes>
