<routes>
	<vehicle depart="0.1" departLane="0" departPos="24.661893262695646" departSpeed="6.8803451" id="38" type="bicycle">
		<route edges="198 118"/>
	</vehicle>
	<vehicle depart="0.1" departLane="0" departPos="27.716972742648526" departSpeed="1.510137e-05" id="322" type="bicycle">
		<route edges="360 198"/>
	</vehicle>
	<vehicle depart="0.1" departLane="0" departPos="38.71960566555842" departSpeed="0.0" id="339" type="bicycle">
		<route edges="129 131"/>
	</vehicle>
	<vehicle depart="0.1" departLane="0" departPos="44.342195831714534" departSpeed="0.0" id="327" type="bus">
		<route edges="330 362"/>
	</vehicle>
	<vehicle depart="0.1" departLane="0" departPos="18.385975787337127" departSpeed="5.1604003e-05" id="346" type="bus">
		<route edges="330 362"/>
	</vehicle>
	<vehicle depart="0.1" departLane="0" departPos="16.61215326440782" departSpeed="8.7459703" id="366" type="bus">
		<route edges="362 198"/>
	</vehicle>
	<vehicle depart="0.1" departLane="0" departPos="23.962374003519834" departSpeed="0.00011105712" id="31" type="passenger">
		<route edges="360 198"/>
	</vehicle>
	<vehicle depart="0.1" departLane="0" departPos="54.037985507513234" departSpeed="0.0" id="32" type="passenger">
		<route edges="360 198"/>
	</vehicle>
	<vehicle depart="0.1" departLane="0" departPos="16.56286796749214" departSpeed="0.018452212" id="33" type="passenger">
		<route edges=":38_3 360"/>
	</vehicle>
	<vehicle depart="0.1" departLane="0" departPos="47.27212303094196" departSpeed="0.0" id="34" type="passenger">
		<route edges="360 198"/>
	</vehicle>
	<vehicle depart="0.1" departLane="0" departPos="55.00177860555044" departSpeed="0.0" id="36" type="passenger">
		<route edges="330 362"/>
	</vehicle>
	<vehicle depart="0.1" departLane="0" departPos="70.03760288272817" departSpeed="0.0" id="39" type="passenger">
		<route edges="204 360"/>
	</vehicle>
	<vehicle depart="0.1" departLane="0" departPos="131.8558654014521" departSpeed="0.0" id="310" type="passenger">
		<route edges="198 118"/>
	</vehicle>
	<vehicle depart="0.1" departLane="0" departPos="61.631050903471014" departSpeed="0.0" id="311" type="passenger">
		<route edges="330 362"/>
	</vehicle>
	<vehicle depart="0.1" departLane="0" departPos="2.5" departSpeed="7.3467886" id="313" type="passenger">
		<route edges="203"/>
	</vehicle>
	<vehicle depart="0.1" departLane="0" departPos="40.16110209123391" departSpeed="0.0" id="315" type="passenger">
		<route edges="360 198"/>
	</vehicle>
	<vehicle depart="0.1" departLane="0" departPos="62.71409123906391" departSpeed="0.00054369407" id="317" type="passenger">
		<route edges="204 360"/>
	</vehicle>
	<vehicle depart="0.1" departLane="0" departPos="32.98938057174614" departSpeed="0.0" id="319" type="passenger">
		<route edges="360 198"/>
	</vehicle>
	<vehicle depart="0.1" departLane="0" departPos="55.45369646121555" departSpeed="0.0051394077" id="320" type="passenger">
		<route edges="204 360"/>
	</vehicle>
	<vehicle depart="0.1" departLane="0" departPos="74.54308710359952" departSpeed="12.149659" id="321" type="passenger">
		<route edges="198 118"/>
	</vehicle>
	<vehicle depart="0.1" departLane="0" departPos="132.00740801682414" departSpeed="0.0" id="323" type="passenger">
		<route edges="197 363"/>
	</vehicle>
	<vehicle depart="0.1" departLane="0" departPos="48.139193784451734" departSpeed="0.02447761" id="325" type="passenger">
		<route edges="204 360"/>
	</vehicle>
	<vehicle depart="0.1" departLane="0" departPos="31.37216505673376" departSpeed="0.0" id="333" type="passenger">
		<route edges="330 362"/>
	</vehicle>
	<vehicle depart="0.1" departLane="0" departPos="13.32953401259833" departSpeed="9.9031534" id="334" type="passenger">
		<route edges="198 118"/>
	</vehicle>
	<vehicle depart="0.1" departLane="0" departPos="24.86955487884496" departSpeed="0.0" id="338" type="passenger">
		<route edges="330 362"/>
	</vehicle>
	<vehicle depart="0.1" departLane="0" departPos="36.51138382166244" departSpeed="0.18737885" id="341" type="passenger">
		<route edges="204 360"/>
	</vehicle>
	<vehicle depart="0.1" departLane="0" departPos="87.8263838447977" departSpeed="6.6598367" id="343" type="passenger">
		<route edges="362 359 1539"/>
	</vehicle>
	<vehicle depart="0.1" departLane="0" departPos="29.28382593044387" departSpeed="0.36736649" id="344" type="passenger">
		<route edges="204 360"/>
	</vehicle>
	<vehicle depart="0.1" departLane="0" departPos="63.021921131758226" departSpeed="5.0120486" id="348" type="passenger">
		<route edges="362 359 1539"/>
	</vehicle>
	<vehicle depart="0.1" departLane="0" departPos="73.71926203793093" departSpeed="18.588699" id="349" type="passenger">
		<route edges="197 363"/>
	</vehicle>
	<vehicle depart="0.1" departLane="0" departPos="6.909221625780565" departSpeed="0.0040843672" id="350" type="passenger">
		<route edges="360 198"/>
	</vehicle>
	<vehicle depart="0.1" departLane="0" departPos="21.439786491641886" departSpeed="0.56071205" id="351" type="passenger">
		<route edges="204 360"/>
	</vehicle>
	<vehicle depart="0.1" departLane="0" departPos="51.063729073566385" departSpeed="4.752449" id="352" type="passenger">
		<route edges="362 359 1539"/>
	</vehicle>
	<vehicle depart="0.1" departLane="0" departPos="42.792672260127006" departSpeed="15.293429" id="353" type="passenger">
		<route edges="197 363"/>
	</vehicle>
	<vehicle depart="0.1" departLane="0" departPos="39.127837770681275" departSpeed="4.7063004" id="354" type="passenger">
		<route edges="362 359 1539"/>
	</vehicle>
	<vehicle depart="0.1" departLane="0" departPos="5.433966988344128" departSpeed="0.00025201091" id="358" type="passenger">
		<route edges="330 362"/>
	</vehicle>
	<vehicle depart="0.1" departLane="0" departPos="4.89441472217367" departSpeed="10.740079" id="365" type="passenger">
		<route edges="197 363"/>
	</vehicle>
	<vehicle depart="0.1" departLane="0" departPos="46.95148672912107" departSpeed="8.1815956" id="367" type="passenger">
		<route edges="129 131"/>
	</vehicle>
	<vehicle depart="0.1" departLane="0" departPos="2.5" departSpeed="4.7827523" id="368" type="passenger">
		<route edges=":36_4 362 198"/>
	</vehicle>
	<vehicle depart="0.1" departLane="0" departPos="33.28921906497601" departSpeed="7.9736562" id="369" type="passenger">
		<route edges="129 131"/>
	</vehicle>
	<vehicle depart="0.1" departLane="0" departPos="24.099704447820056" departSpeed="5.1822479" id="370" type="passenger">
		<route edges="335 329"/>
	</vehicle>
	<vehicle depart="0.1" departLane="0" departPos="7.862022645094907" departSpeed="0.82069121" id="371" type="passenger">
		<route edges="204 360"/>
	</vehicle>
	<vehicle depart="0.1" departLane="0" departPos="12.329968797960879" departSpeed="4.7833949" id="373" type="passenger">
		<route edges="335 362 198"/>
	</vehicle>
	<vehicle depart="0.1" departLane="0" departPos="10.916514919770282" departSpeed="5.8061788" id="374" type="passenger">
		<route edges="129 131"/>
	</vehicle>
	<vehicle depart="0.1" departLane="0" departPos="4.75064237379565" departSpeed="2.3004225" id="376" type="passenger">
		<route edges="129 131"/>
	</vehicle>
	<vehicle depart="0.1" departLane="0" departPos="48.406737569059906" departSpeed="0.0" id="324" type="motorcycle">
		<route edges="330 362"/>
	</vehicle>
	<vehicle depart="0.1" departLane="0" departPos="40.93174511778763" departSpeed="0.076478829" id="331" type="motorcycle">
		<route edges="204 360"/>
	</vehicle>
	<vehicle depart="0.1" departLane="0" departPos="10.090179849885017" departSpeed="8.5271468" id="340" type="motorcycle">
		<route edges=":35_5 359 1539"/>
	</vehicle>
	<vehicle depart="0.1" departLane="0" departPos="13.4579169800891" departSpeed="0.72781338" id="356" type="motorcycle">
		<route edges="204 360"/>
	</vehicle>
	<vehicle depart="0.1" departLane="0" departPos="3.819173465702736" departSpeed="2.3393422" id="375" type="motorcycle">
		<route edges="335 329"/>
	</vehicle>
	<vehicle depart="0.1" departLane="0" departPos="97.06026949166689" departSpeed="11.63693" id="30" type="truck">
		<route edges="198 118"/>
	</vehicle>
	<vehicle depart="0.1" departLane="0" departPos="63.56616030460168" departSpeed="0.0" id="314" type="truck">
		<route edges="360 198"/>
	</vehicle>
	<vehicle depart="0.1" departLane="0" departPos="16.80681798256757" departSpeed="0.00068615385" id="342" type="truck">
		<route edges="360 198"/>
	</vehicle>
</routes>
