<routes>
	<vehicle depart="0.1" departLane="0" departPos="69.89927539217777" departSpeed="0.0" id="315" type="bicycle">
		<route edges="348 351"/>
	</vehicle>
	<vehicle depart="0.1" departLane="0" departPos="66.86178023912242" departSpeed="0.1294484" id="338" type="bicycle">
		<route edges="348 351 388 385"/>
	</vehicle>
	<vehicle depart="0.1" departLane="0" departPos="17.404497696275275" departSpeed="0.16306421" id="335" type="bus">
		<route edges="853 350"/>
	</vehicle>
	<vehicle depart="0.1" departLane="0" departPos="69.12195683235113" departSpeed="0.0" id="342" type="bus">
		<route edges="856 77"/>
	</vehicle>
	<vehicle depart="0.1" departLane="0" departPos="39.54317343231166" departSpeed="1.1729249" id="353" type="bus">
		<route edges="856 77"/>
	</vehicle>
	<vehicle depart="0.1" departLane="0" departPos="70.09997110675985" departSpeed="0.0" id="34" type="passenger">
		<route edges="418 389"/>
	</vehicle>
	<vehicle depart="0.1" departLane="0" departPos="14.006866845756086" departSpeed="0.0" id="37" type="passenger">
		<route edges="365 351"/>
	</vehicle>
	<vehicle depart="0.1" departLane="0" departPos="7.269346277361538" departSpeed="0.0" id="39" type="passenger">
		<route edges="365 351"/>
	</vehicle>
	<vehicle depart="0.1" departLane="0" departPos="38.26670144985283" departSpeed="0.0" id="310" type="passenger">
		<route edges="76 853"/>
	</vehicle>
	<vehicle depart="0.1" departLane="0" departPos="31.257166011449844" departSpeed="0.0" id="312" type="passenger">
		<route edges="76 853"/>
	</vehicle>
	<vehicle depart="0.1" departLane="0" departPos="24.358337273957904" departSpeed="0.0" id="314" type="passenger">
		<route edges="76 853"/>
	</vehicle>
	<vehicle depart="0.1" departLane="0" departPos="17.674638036677862" departSpeed="9.4971348" id="319" type="passenger">
		<route edges="419"/>
	</vehicle>
	<vehicle depart="0.1" departLane="0" departPos="63.13044149580745" departSpeed="0.0" id="320" type="passenger">
		<route edges="418 389"/>
	</vehicle>
	<vehicle depart="0.1" departLane="0" departPos="10.807272193483666" departSpeed="11.624947" id="322" type="passenger">
		<route edges=":37_3 388 385"/>
	</vehicle>
	<vehicle depart="0.1" departLane="0" departPos="56.15413759730406" departSpeed="0.0" id="324" type="passenger">
		<route edges="418 389"/>
	</vehicle>
	<vehicle depart="0.1" departLane="0" departPos="32.20422908778919" departSpeed="0.0015810627" id="325" type="passenger">
		<route edges="853 350"/>
	</vehicle>
	<vehicle depart="0.1" departLane="0" departPos="17.446223948190852" departSpeed="0.0" id="329" type="passenger">
		<route edges="76 853"/>
	</vehicle>
	<vehicle depart="0.1" departLane="0" departPos="24.885666978498097" departSpeed="0.017937677" id="330" type="passenger">
		<route edges="853 350"/>
	</vehicle>
	<vehicle depart="0.1" departLane="0" departPos="10.534063909550774" departSpeed="0.0" id="332" type="passenger">
		<route edges="76 853"/>
	</vehicle>
	<vehicle depart="0.1" departLane="0" departPos="45.09788812651966" departSpeed="0.00047210596" id="333" type="passenger">
		<route edges="418 389"/>
	</vehicle>
	<vehicle depart="0.1" departLane="0" departPos="52.81405115282125" departSpeed="6.5268197" id="334" type="passenger">
		<route edges="348 351 854 857"/>
	</vehicle>
	<vehicle depart="0.1" departLane="0" departPos="38.39513313975368" departSpeed="0.0023366361" id="337" type="passenger">
		<route edges="418 389"/>
	</vehicle>
	<vehicle depart="0.1" departLane="0" departPos="31.366808638197607" departSpeed="0.0093219683" id="339" type="passenger">
		<route edges="418 389"/>
	</vehicle>
	<vehicle depart="0.1" departLane="0" departPos="10.886711500080139" departSpeed="0.0" id="340" type="passenger">
		<route edges="386 419"/>
	</vehicle>
	<vehicle depart="0.1" departLane="0" departPos="40.938893483199074" departSpeed="5.5780341" id="341" type="passenger">
		<route edges="348 366"/>
	</vehicle>
	<vehicle depart="0.1" departLane="0" departPos="24.173834275226607" departSpeed="0.02991085" id="343" type="passenger">
		<route edges="418 389"/>
	</vehicle>
	<vehicle depart="0.1" departLane="0" departPos="30.118815627617764" departSpeed="4.38321" id="344" type="passenger">
		<route edges="348 351"/>
	</vehicle>
	<vehicle depart="0.1" departLane="0" departPos="54.69905883698342" departSpeed="0.050275863" id="345" type="passenger">
		<route edges="856 77"/>
	</vehicle>
	<vehicle depart="0.1" departLane="0" departPos="20.2047672576677" departSpeed="3.1007123" id="346" type="passenger">
		<route edges="348 351"/>
	</vehicle>
	<vehicle depart="0.1" departLane="0" departPos="17.15615952967204" departSpeed="0.080658629" id="349" type="passenger">
		<route edges="418 389"/>
	</vehicle>
	<vehicle depart="0.1" departLane="0" departPos="47.66250672179419" departSpeed="0.34111387" id="352" type="passenger">
		<route edges="856 77"/>
	</vehicle>
	<vehicle depart="0.1" departLane="0" departPos="10.181708222226987" departSpeed="0.18802457" id="354" type="passenger">
		<route edges="418 389"/>
	</vehicle>
	<vehicle depart="0.1" departLane="0" departPos="11.090209902740103" departSpeed="2.0647929" id="355" type="passenger">
		<route edges="348 351"/>
	</vehicle>
	<vehicle depart="0.1" departLane="0" departPos="23.121947907546787" departSpeed="1.9818955" id="356" type="passenger">
		<route edges="856 77"/>
	</vehicle>
	<vehicle depart="0.1" departLane="0" departPos="13.684686617711217" departSpeed="2.2785632" id="357" type="passenger">
		<route edges="856 77"/>
	</vehicle>
	<vehicle depart="0.1" departLane="0" departPos="5.695474855903379" departSpeed="1.0806657" id="358" type="passenger">
		<route edges="856 77"/>
	</vehicle>
	<vehicle depart="0.1" departLane="0" departPos="49.28270120044486" departSpeed="6.3486262e-05" id="327" type="motorcycle">
		<route edges="418 389"/>
	</vehicle>
	<vehicle depart="0.1" departLane="0" departPos="63.58508526323489" departSpeed="8.506586" id="331" type="motorcycle">
		<route edges="348 351 388 385"/>
	</vehicle>
	<vehicle depart="0.1" departLane="0" departPos="14.012019065576503" departSpeed="19.572119" id="336" type="motorcycle">
		<route edges="857"/>
	</vehicle>
	<vehicle depart="0.1" departLane="0" departPos="41.85742432887214" departSpeed="0.0" id="323" type="truck">
		<route edges="853 350"/>
	</vehicle>
</routes>
