<routes>
	<vehicle depart="0.1" departLane="0" departPos="21.348239835808414" departSpeed="0.43793698" id="324" type="bicycle">
		<route edges=":65_10 10440"/>
	</vehicle>
	<vehicle depart="0.1" departLane="0" departPos="34.29268561047114" departSpeed="0.0" id="321" type="bus">
		<route edges=":65_9 10595"/>
	</vehicle>
	<vehicle depart="0.1" departLane="0" departPos="26.06444126492727" departSpeed="7.940848" id="318" type="passenger">
		<route edges=":65_8 10436 10646"/>
	</vehicle>
	<vehicle depart="0.1" departLane="0" departPos="2.5" departSpeed="0.7649397" id="326" type="passenger">
		<route edges=":65_11 10599"/>
	</vehicle>
	<vehicle depart="0.1" departLane="0" departPos="7.949549283780186" departSpeed="0.0049330577" id="334" type="passenger">
		<route edges=":65_0 10436"/>
	</vehicle>
	<vehicle depart="0.1" departLane="0" departPos="51.18343705821481" departSpeed="12.952272" id="337" type="passenger">
		<route edges="10449 10596 10436 10646"/>
	</vehicle>
	<vehicle depart="0.1" departLane="0" departPos="64.5167670390225" departSpeed="1.0391327" id="347" type="passenger">
		<route edges="10598 10595"/>
	</vehicle>
	<vehicle depart="0.1" departLane="0" departPos="48.454503610913044" departSpeed="0.41812092" id="351" type="passenger">
		<route edges="10598 10595"/>
	</vehicle>
	<vehicle depart="0.1" departLane="0" departPos="58.161041539058516" departSpeed="0.090027641" id="354" type="passenger">
		<route edges="10598 10595"/>
	</vehicle>
	<vehicle depart="0.1" departLane="0" departPos="8.726640702546938" departSpeed="1.4175034" id="341" type="motorcycle">
		<route edges=":65_0 10436"/>
	</vehicle>
</routes>
