<routes>
	<vehicle depart="0.1" departLane="0" departPos="25.01402890920054" departSpeed="3.1483795" id="314" type="passenger">
		<route edges=":86_4 69812 69815"/>
	</vehicle>
	<vehicle depart="0.1" departLane="0" departPos="13.393545513772356" departSpeed="3.3683342" id="319" type="passenger">
		<route edges="69487"/>
	</vehicle>
	<vehicle depart="0.1" departLane="0" departPos="44.685634969333094" departSpeed="0.0" id="326" type="passenger">
		<route edges="69488 69812"/>
	</vehicle>
	<vehicle depart="0.1" departLane="0" departPos="37.068737327652215" departSpeed="0.12380452" id="327" type="passenger">
		<route edges="69488 69812"/>
	</vehicle>
	<vehicle depart="0.1" departLane="0" departPos="15.886928462898934" departSpeed="1.1185481" id="350" type="passenger">
		<route edges="69812 69815"/>
	</vehicle>
	<vehicle depart="0.1" departLane="0" departPos="2.5" departSpeed="2.275893" id="357" type="passenger">
		<route edges="69812 69815"/>
	</vehicle>
	<vehicle depart="0.1" departLane="0" departPos="8.673195919319918" departSpeed="2.8946523" id="372" type="passenger">
		<route edges=":86_0 69487"/>
	</vehicle>
	<vehicle depart="0.1" departLane="0" departPos="37.11121135367243" departSpeed="0.87779806" id="379" type="passenger">
		<route edges="69809 69812"/>
	</vehicle>
	<vehicle depart="0.1" departLane="0" departPos="24.99218510031492" departSpeed="0.78587178" id="385" type="passenger">
		<route edges="69809 69812"/>
	</vehicle>
	<vehicle depart="0.1" departLane="0" departPos="17.88989059015844" departSpeed="4.1588271" id="363" type="truck">
		<route edges=":86_1 69812"/>
	</vehicle>
</routes>
