<routes>
	<vehicle depart="0.1" departLane="0" departPos="55.68261529695157" departSpeed="2.4733057e-05" id="343" type="bicycle">
		<route edges="32082 32085"/>
	</vehicle>
	<vehicle depart="0.1" departLane="0" departPos="11.12934190177165" departSpeed="0.61155513" id="38" type="passenger">
		<route edges=":39_0 32085"/>
	</vehicle>
	<vehicle depart="0.1" departLane="0" departPos="62.379359750386996" departSpeed="1.2832392" id="329" type="passenger">
		<route edges="31633 32081"/>
	</vehicle>
	<vehicle depart="0.1" departLane="0" departPos="69.01936707917658" departSpeed="0.0" id="336" type="passenger">
		<route edges="32082 32085"/>
	</vehicle>
	<vehicle depart="0.1" departLane="0" departPos="42.15678633641958" departSpeed="1.5144163" id="340" type="passenger">
		<route edges="31633 32081"/>
	</vehicle>
	<vehicle depart="0.1" departLane="0" departPos="61.51838377339677" departSpeed="0.0" id="342" type="passenger">
		<route edges="32082 32085"/>
	</vehicle>
	<vehicle depart="0.1" departLane="0" departPos="31.59579619903411" departSpeed="2.2694368" id="347" type="passenger">
		<route edges="31633 32081"/>
	</vehicle>
	<vehicle depart="0.1" departLane="0" departPos="23.517296576237737" departSpeed="0.8528586" id="351" type="passenger">
		<route edges="31633 32081"/>
	</vehicle>
	<vehicle depart="0.1" departLane="0" departPos="47.290748936134186" departSpeed="1.8860817" id="334" type="motorcycle">
		<route edges="31633 32081"/>
	</vehicle>
</routes>
