<!-- generated on Tue Feb  9 22:11:49 2021 by Eclipse SUMO netconvert Version 1.8.0
<configuration xmlns:xsi="http://www.w3.org/2001/XMLSchema-instance" xsi:noNamespaceSchemaLocation="http://sumo.dlr.de/xsd/netconvertConfiguration.xsd">

    <input>
        <node-files value="./converted_scenarios/scenario-factory/DEU_Ibbenbueren-8_5_I-1-1/DEU_Ibbenbueren-8_5_I-1-1.nod.xml"/>
        <edge-files value="./converted_scenarios/scenario-factory/DEU_Ibbenbueren-8_5_I-1-1/DEU_Ibbenbueren-8_5_I-1-1.edg.xml"/>
        <connection-files value="./converted_scenarios/scenario-factory/DEU_Ibbenbueren-8_5_I-1-1/DEU_Ibbenbueren-8_5_I-1-1.con.xml"/>
        <tllogic-files value="./converted_scenarios/scenario-factory/DEU_Ibbenbueren-8_5_I-1-1/DEU_Ibbenbueren-8_5_I-1-1.tll.xml"/>
        <type-files value="/home/zen/commonroad-interactive-benchmarks/install/commonroad-map-tool/crmapconverter/sumo_map/templates/DEU.typ.xml"/>
    </input>

    <output>
        <output-file value="./converted_scenarios/scenario-factory/DEU_Ibbenbueren-8_5_I-1-1/DEU_Ibbenbueren-8_5_I-1-1.net.xml"/>
    </output>

    <processing>
        <geometry.remove.keep-edges.explicit value="true"/>
        <geometry.avoid-overlap value="true"/>
        <offset.disable-normalization value="true"/>
    </processing>

    <junctions>
        <no-turnarounds value="true"/>
        <junctions.internal-link-detail value="20"/>
    </junctions>

    <report>
        <aggregate-warnings value="5"/>
    </report>

    <random_number>
        <seed value="1234"/>
    </random_number>

</configuration>
--><net xmlns:xsi="http://www.w3.org/2001/XMLSchema-instance" version="1.6" junctionCornerDetail="5" junctionLinkDetail="20" limitTurnSpeed="5.50" xsi:noNamespaceSchemaLocation="http://sumo.dlr.de/xsd/net_file.xsd">

    <location netOffset="0.00,0.00" convBoundary="-385.22,374.38,-146.01,631.44" origBoundary="-385.22,374.38,-146.01,631.44" projParameter="!"/>

    <type id="highway.bridleway" priority="1" speed="2.78" allow="pedestrian" oneway="1" width="2.00"/>
    <type id="highway.bus_guideway" priority="1" speed="27.78" allow="bus" oneway="1"/>
    <type id="highway.cycleway" priority="1" speed="8.33" allow="bicycle" oneway="0" width="1.00"/>
    <type id="highway.footway" priority="1" speed="2.78" allow="pedestrian" oneway="1" width="2.00"/>
    <type id="highway.ford" priority="1" speed="2.78" allow="army" oneway="0"/>
    <type id="highway.living_street" priority="2" speed="2.78" disallow="tram rail_urban rail rail_electric rail_fast ship" oneway="0"/>
    <type id="highway.motorway" priority="14" speed="39.44" allow="private emergency authority army vip passenger hov taxi bus coach delivery truck trailer motorcycle evehicle custom1 custom2" oneway="1"/>
    <type id="highway.motorway_link" priority="9" speed="22.22" allow="private emergency authority army vip passenger hov taxi bus coach delivery truck trailer motorcycle evehicle custom1 custom2" oneway="1"/>
    <type id="highway.path" priority="1" speed="2.78" allow="pedestrian bicycle" oneway="0" width="2.00"/>
    <type id="highway.pedestrian" priority="1" speed="2.78" allow="pedestrian" oneway="1" width="2.00"/>
    <type id="highway.primary" priority="12" speed="27.78" disallow="pedestrian tram rail_urban rail rail_electric rail_fast ship" oneway="0"/>
    <type id="highway.primary_link" priority="7" speed="22.22" disallow="pedestrian tram rail_urban rail rail_electric rail_fast ship" oneway="0"/>
    <type id="highway.raceway" priority="15" speed="83.33" allow="vip" oneway="0"/>
    <type id="highway.residential" priority="3" speed="13.89" disallow="pedestrian tram rail_urban rail rail_electric rail_fast ship" oneway="0"/>
    <type id="highway.secondary" priority="11" speed="27.78" disallow="pedestrian tram rail_urban rail rail_electric rail_fast ship" oneway="0"/>
    <type id="highway.secondary_link" priority="6" speed="22.22" disallow="pedestrian tram rail_urban rail rail_electric rail_fast ship" oneway="0"/>
    <type id="highway.service" priority="1" speed="5.56" allow="pedestrian delivery bicycle" oneway="0"/>
    <type id="highway.stairs" priority="1" speed="1.39" allow="pedestrian" oneway="1" width="2.00"/>
    <type id="highway.step" priority="1" speed="1.39" allow="pedestrian" oneway="1" width="2.00"/>
    <type id="highway.steps" priority="1" speed="1.39" allow="pedestrian" oneway="1" width="2.00"/>
    <type id="highway.tertiary" priority="10" speed="22.22" disallow="pedestrian tram rail_urban rail rail_electric rail_fast ship" oneway="0"/>
    <type id="highway.tertiary_link" priority="5" speed="22.22" disallow="pedestrian tram rail_urban rail rail_electric rail_fast ship" oneway="0"/>
    <type id="highway.track" priority="1" speed="5.56" allow="pedestrian motorcycle moped bicycle" oneway="0"/>
    <type id="highway.trunk" priority="13" speed="27.78" disallow="pedestrian bicycle tram rail_urban rail rail_electric rail_fast ship" oneway="0"/>
    <type id="highway.trunk_link" priority="8" speed="22.22" disallow="pedestrian bicycle tram rail_urban rail rail_electric rail_fast ship" oneway="0"/>
    <type id="highway.unclassified" priority="4" speed="13.89" disallow="pedestrian tram rail_urban rail rail_electric rail_fast ship" oneway="0"/>
    <type id="highway.unsurfaced" priority="1" speed="8.33" disallow="tram rail_urban rail rail_electric rail_fast ship" oneway="0"/>
    <type id="railway.highspeed" priority="21" speed="69.44" allow="rail_fast" oneway="1"/>
    <type id="railway.light_rail" priority="19" speed="27.78" allow="rail_urban" oneway="1"/>
    <type id="railway.preserved" priority="16" speed="27.78" allow="rail" oneway="1"/>
    <type id="railway.rail" priority="20" speed="44.44" allow="rail" oneway="1"/>
    <type id="railway.subway" priority="18" speed="27.78" allow="rail_urban" oneway="1"/>
    <type id="railway.tram" priority="17" speed="13.89" allow="tram" oneway="1"/>

    <edge id=":37_0" function="internal">
        <lane id=":37_0_0" index="0" disallow="pedestrian tram rail_urban rail rail_electric rail_fast ship" speed="36.11" length="39.13" width="3.50" shape="-287.03,567.44 -296.44,545.67 -302.35,531.44"/>
    </edge>
    <edge id=":37_1" function="internal">
        <lane id=":37_1_0" index="0" disallow="pedestrian tram rail_urban rail rail_electric rail_fast ship" speed="12.27" length="34.59" width="3.50" shape="-287.03,567.44 -288.03,564.95 -288.82,562.41 -289.37,559.81 -289.60,557.16 -289.58,555.83 -289.46,554.51 -289.23,553.20 -288.89,551.91 -288.44,550.66 -287.88,549.45 -287.22,548.30 -286.47,547.20 -284.72,545.20 -282.73,543.44 -280.56,541.91 -278.26,540.57 -275.87,539.41"/>
    </edge>
    <edge id=":37_2" function="internal">
        <lane id=":37_2_0" index="0" disallow="pedestrian tram rail_urban rail rail_electric rail_fast ship" speed="11.27" length="29.02" width="3.50" shape="-274.44,542.61 -276.53,543.62 -278.52,544.77 -280.38,546.08 -282.05,547.55 -283.51,549.23 -284.11,550.09 -284.64,551.03 -285.09,551.99 -285.46,553.00 -285.73,554.03 -285.92,555.09 -286.02,556.17 -286.04,557.23 -285.85,559.47 -285.38,561.67 -284.70,563.86 -283.83,566.03"/>
    </edge>
    <edge id=":37_3" function="internal">
        <lane id=":37_3_0" index="0" disallow="pedestrian tram rail_urban rail rail_electric rail_fast ship" speed="12.12" length="34.63" width="3.50" shape="-274.44,542.61 -278.04,543.99 -280.58,544.68 -283.19,545.11 -285.85,545.21 -287.24,545.10 -288.60,544.89 -289.94,544.55 -291.25,544.10 -292.51,543.52 -293.71,542.84 -294.84,542.06 -295.91,541.17 -297.77,539.27 -299.36,537.15 -300.72,534.90 -302.35,531.44"/>
    </edge>
    <edge id=":37_4" function="internal">
        <lane id=":37_4_0" index="0" disallow="pedestrian tram rail_urban rail rail_electric rail_fast ship" speed="11.12" length="28.96" width="3.50" shape="-299.13,530.08 -297.70,533.11 -296.55,535.01 -295.21,536.79 -293.66,538.39 -292.80,539.10 -291.88,539.73 -290.91,540.28 -289.90,540.74 -288.85,541.11 -287.77,541.38 -286.67,541.55 -285.56,541.64 -283.33,541.56 -281.13,541.20 -278.98,540.61 -275.87,539.41"/>
    </edge>
    <edge id=":37_5" function="internal">
        <lane id=":37_5_0" index="0" disallow="pedestrian tram rail_urban rail rail_electric rail_fast ship" speed="36.11" length="39.07" width="3.50" shape="-299.13,530.08 -293.21,544.31 -283.83,566.03"/>
    </edge>
    <edge id=":38_0" function="internal">
        <lane id=":38_0_0" index="0" disallow="pedestrian tram rail_urban rail rail_electric rail_fast ship" speed="10.48" length="30.83" width="3.50" shape="-311.30,509.61 -312.27,507.44 -313.39,505.35 -314.71,503.38 -315.45,502.45 -316.26,501.59 -317.14,500.80 -318.10,500.09 -319.12,499.50 -320.22,499.04 -321.36,498.73 -322.53,498.56 -323.72,498.55 -324.90,498.67 -326.06,498.91 -327.19,499.25 -329.37,500.18 -331.44,501.35 -333.39,502.69 -335.26,504.15"/>
    </edge>
    <edge id=":38_1" function="internal">
        <lane id=":38_1_0" index="0" disallow="pedestrian tram rail_urban rail rail_electric rail_fast ship" speed="14.13" length="37.46" width="3.50" shape="-311.30,509.61 -312.97,505.07 -313.97,501.58 -314.69,498.03 -315.06,494.42 -315.07,492.00 -314.87,489.59 -314.41,487.22 -313.70,484.91 -312.71,482.71 -311.47,480.64 -309.98,478.73 -308.30,477.00 -306.45,475.45"/>
    </edge>
    <edge id=":38_2" function="internal">
        <lane id=":38_2_0" index="0" disallow="pedestrian tram rail_urban rail rail_electric rail_fast ship" speed="13.26" length="32.90" width="3.50" shape="-304.30,478.21 -305.93,479.57 -307.37,481.06 -308.62,482.70 -309.66,484.47 -310.47,486.36 -311.05,488.34 -311.41,490.39 -311.56,492.49 -311.53,494.60 -311.17,497.81 -310.50,501.00 -309.59,504.14 -308.06,508.28"/>
    </edge>
    <edge id=":38_3" function="internal">
        <lane id=":38_3_0" index="0" disallow="pedestrian tram rail_urban rail rail_electric rail_fast ship" speed="36.11" length="40.40" width="3.50" shape="-304.30,478.21 -311.64,484.01 -321.90,492.70 -335.26,504.15"/>
    </edge>
    <edge id=":38_4" function="internal">
        <lane id=":38_4_0" index="0" disallow="pedestrian tram rail_urban rail rail_electric rail_fast ship" speed="36.11" length="40.52" width="3.50" shape="-337.50,501.47 -324.13,490.00 -313.82,481.27 -306.45,475.45"/>
    </edge>
    <edge id=":38_5" function="internal">
        <lane id=":38_5_0" index="0" disallow="pedestrian tram rail_urban rail rail_electric rail_fast ship" speed="11.53" length="37.65" width="3.50" shape="-337.50,501.47 -335.34,499.77 -333.04,498.20 -330.59,496.81 -327.97,495.71 -326.54,495.28 -325.08,494.98 -323.58,494.83 -322.05,494.86 -320.52,495.08 -319.03,495.50 -317.61,496.10 -316.29,496.86 -315.08,497.76 -313.98,498.75 -312.98,499.82 -312.06,500.96 -310.51,503.30 -309.19,505.75 -308.06,508.28"/>
    </edge>
    <edge id=":39_0" function="internal">
        <lane id=":39_0_0" index="0" disallow="pedestrian tram rail_urban rail rail_electric rail_fast ship" speed="11.04" length="28.65" width="3.50" shape="-221.83,538.57 -223.29,535.41 -224.44,533.49 -225.76,531.72 -227.29,530.13 -228.09,529.48 -228.96,528.87 -229.88,528.35 -230.83,527.91 -231.82,527.57 -232.84,527.31 -233.88,527.15 -234.92,527.07 -237.12,527.14 -239.31,527.51 -241.46,528.10 -244.70,529.35"/>
    </edge>
    <edge id=":39_1" function="internal">
        <lane id=":39_1_0" index="0" disallow="pedestrian tram rail_urban rail rail_electric rail_fast ship" speed="12.46" length="34.45" width="3.50" shape="-221.83,538.57 -223.10,534.92 -223.71,532.45 -224.09,529.93 -224.19,527.38 -223.96,524.84 -223.36,522.37 -222.92,521.17 -222.38,520.01 -221.04,517.85 -219.40,515.89 -217.52,514.17 -215.47,512.66 -213.29,511.34 -211.01,510.19"/>
    </edge>
    <edge id=":39_2" function="internal">
        <lane id=":39_2_0" index="0" disallow="pedestrian tram rail_urban rail rail_electric rail_fast ship" speed="11.48" length="29.08" width="3.50" shape="-209.52,513.36 -211.52,514.37 -213.41,515.50 -215.16,516.79 -216.73,518.24 -218.08,519.85 -219.19,521.66 -219.61,522.57 -219.96,523.50 -220.46,525.56 -220.64,527.66 -220.56,529.79 -220.23,531.94 -219.70,534.06 -218.59,537.26"/>
    </edge>
    <edge id=":39_3" function="internal">
        <lane id=":39_3_0" index="0" disallow="pedestrian tram rail_urban rail rail_electric rail_fast ship" speed="36.11" length="38.64" width="3.50" shape="-209.52,513.36 -215.22,515.99 -244.70,529.35"/>
    </edge>
    <edge id=":39_4" function="internal">
        <lane id=":39_4_0" index="0" disallow="pedestrian tram rail_urban rail rail_electric rail_fast ship" speed="36.11" length="38.58" width="3.50" shape="-246.13,526.15 -216.68,512.81 -211.01,510.19"/>
    </edge>
    <edge id=":39_5" function="internal">
        <lane id=":39_5_0" index="0" disallow="pedestrian tram rail_urban rail rail_electric rail_fast ship" speed="12.06" length="34.37" width="3.50" shape="-246.13,526.15 -242.41,524.72 -239.86,524.02 -237.26,523.59 -234.62,523.50 -233.31,523.60 -232.00,523.80 -230.72,524.13 -229.48,524.56 -228.28,525.11 -227.13,525.76 -226.05,526.52 -225.03,527.36 -223.20,529.25 -221.62,531.37 -220.27,533.64 -218.59,537.26"/>
    </edge>
    <edge id=":40_0" function="internal">
        <lane id=":40_0_0" index="0" disallow="pedestrian tram rail_urban rail rail_electric rail_fast ship" speed="36.11" length="39.75" width="3.50" shape="-267.85,452.34 -271.33,454.62 -282.50,462.36 -300.33,475.25"/>
    </edge>
    <edge id=":40_1" function="internal">
        <lane id=":40_1_0" index="0" disallow="pedestrian tram rail_urban rail rail_electric rail_fast ship" speed="11.73" length="37.29" width="3.50" shape="-267.85,452.34 -271.58,454.49 -274.19,455.67 -276.91,456.58 -278.31,456.89 -279.73,457.10 -281.16,457.18 -282.59,457.11 -284.01,456.88 -285.38,456.48 -286.70,455.92 -287.94,455.20 -289.09,454.35 -290.15,453.38 -291.12,452.32 -291.99,451.19 -293.51,448.76 -294.77,446.18 -296.28,442.13"/>
    </edge>
    <edge id=":40_2" function="internal">
        <lane id=":40_2_0" index="0" disallow="pedestrian tram rail_urban rail rail_electric rail_fast ship" speed="10.68" length="30.72" width="3.50" shape="-292.95,441.06 -291.64,444.59 -290.57,446.77 -289.29,448.82 -288.58,449.73 -287.81,450.58 -286.97,451.34 -286.08,452.01 -285.13,452.56 -284.13,452.99 -283.09,453.29 -282.00,453.46 -280.89,453.51 -279.75,453.45 -278.61,453.28 -277.49,453.03 -275.19,452.26 -272.98,451.26 -269.70,449.37"/>
    </edge>
    <edge id=":40_3" function="internal">
        <lane id=":40_3_0" index="0" disallow="pedestrian tram rail_urban rail rail_electric rail_fast ship" speed="14.72" length="37.67" width="3.50" shape="-292.95,441.06 -291.68,445.62 -290.98,449.08 -290.56,452.58 -290.47,456.11 -290.77,459.62 -291.22,461.93 -291.89,464.19 -292.79,466.36 -293.92,468.43 -295.26,470.36 -296.79,472.15 -298.49,473.77 -300.33,475.25"/>
    </edge>
    <edge id=":40_4" function="internal">
        <lane id=":40_4_0" index="0" disallow="pedestrian tram rail_urban rail rail_electric rail_fast ship" speed="13.86" length="33.31" width="3.50" shape="-302.42,472.44 -300.79,471.14 -299.31,469.72 -298.00,468.16 -296.86,466.49 -295.91,464.70 -295.15,462.81 -294.59,460.85 -294.22,458.84 -293.97,455.72 -294.08,452.57 -294.48,449.42 -295.11,446.29 -296.28,442.13"/>
    </edge>
    <edge id=":40_5" function="internal">
        <lane id=":40_5_0" index="0" disallow="pedestrian tram rail_urban rail rail_electric rail_fast ship" speed="36.11" length="40.04" width="3.50" shape="-302.42,472.44 -284.50,459.48 -273.26,451.70 -269.70,449.37"/>
    </edge>

    <edge id="30859" from="38" to="12" priority="3" type="highway.residential" spreadType="center" length="62.01" shape="-316.12,497.61 -383.06,543.65">
        <lane id="30859_0" index="0" disallow="pedestrian tram rail_urban rail rail_electric rail_fast ship" speed="36.11" length="62.01" width="3.50" customShape="1" shape="-335.26,504.15 -365.46,529.34 -383.06,543.65"/>
    </edge>
    <edge id="30860" from="32" to="38" priority="3" type="highway.residential" spreadType="center" length="61.92" shape="-385.22,540.90 -318.10,494.73">
        <lane id="30860_0" index="0" disallow="pedestrian tram rail_urban rail rail_electric rail_fast ship" speed="36.11" length="61.92" width="3.50" customShape="1" shape="-385.22,540.90 -367.67,526.63 -337.49,501.46"/>
    </edge>
    <edge id="30862" from="40" to="38" priority="3" type="highway.residential" spreadType="center" length="5.02" shape="-286.79,456.39 -315.72,497.21">
        <lane id="30862_0" index="0" disallow="pedestrian tram rail_urban rail rail_electric rail_fast ship" speed="36.11" length="5.02" width="3.50" customShape="1" shape="-300.33,475.25 -302.32,476.74 -304.36,478.25"/>
    </edge>
    <edge id="30863" from="38" to="40" priority="3" type="highway.residential" spreadType="center" length="5.03" shape="-318.57,495.18 -289.65,454.37">
        <lane id="30863_0" index="0" disallow="pedestrian tram rail_urban rail rail_electric rail_fast ship" speed="36.11" length="5.03" width="3.50" customShape="1" shape="-306.45,475.45 -304.42,473.93 -302.42,472.44"/>
    </edge>
    <edge id="30865" from="31" to="40" priority="3" type="highway.residential" spreadType="center" length="70.04" shape="-205.99,419.65 -287.56,457.04">
        <lane id="30865_0" index="0" disallow="pedestrian tram rail_urban rail rail_electric rail_fast ship" speed="36.11" length="70.04" width="3.50" customShape="1" shape="-205.99,419.65 -209.86,421.52 -235.43,434.31 -249.22,441.49 -259.28,447.13 -267.89,452.36"/>
    </edge>
    <edge id="30866" from="40" to="30" priority="3" type="highway.residential" spreadType="center" length="70.00" shape="-289.01,453.85 -207.85,416.66">
        <lane id="30866_0" index="0" disallow="pedestrian tram rail_urban rail rail_electric rail_fast ship" speed="36.11" length="70.00" width="3.50" customShape="1" shape="-269.70,449.37 -261.10,444.15 -250.99,438.47 -237.16,431.26 -211.55,418.45 -207.85,416.66"/>
    </edge>
    <edge id="31633" from="35" to="39" priority="3" type="highway.residential" spreadType="center" length="70.00" shape="-195.62,603.48 -226.93,526.43">
        <lane id="31633_0" index="0" disallow="pedestrian tram rail_urban rail rail_electric rail_fast ship" speed="36.11" length="70.00" width="3.50" customShape="1" shape="-195.62,603.48 -206.05,577.65 -221.83,538.57"/>
    </edge>
    <edge id="31634" from="39" to="27" priority="3" type="highway.residential" spreadType="center" length="69.99" shape="-223.68,525.12 -192.38,602.16">
        <lane id="31634_0" index="0" disallow="pedestrian tram rail_urban rail rail_electric rail_fast ship" speed="36.11" length="69.99" width="3.50" customShape="1" shape="-218.59,537.26 -202.80,576.34 -192.38,602.16"/>
    </edge>
    <edge id="31800" from="40" to="25" priority="3" type="highway.residential" spreadType="center" length="70.01" shape="-289.90,456.03 -317.60,375.45">
        <lane id="31800_0" index="0" disallow="pedestrian tram rail_urban rail rail_electric rail_fast ship" speed="36.11" length="70.01" width="3.50" customShape="1" shape="-296.28,442.13 -317.60,375.45"/>
    </edge>
    <edge id="31801" from="34" to="40" priority="3" type="highway.residential" spreadType="center" length="70.01" shape="-314.27,374.38 -286.59,454.90">
        <lane id="31801_0" index="0" disallow="pedestrian tram rail_urban rail rail_electric rail_fast ship" speed="36.11" length="70.01" width="3.50" customShape="1" shape="-314.27,374.38 -292.95,441.06"/>
    </edge>
    <edge id="31868" from="37" to="38" priority="3" type="highway.residential" spreadType="center" length="23.60" shape="-288.61,547.07 -318.67,497.05">
        <lane id="31868_0" index="0" disallow="pedestrian tram rail_urban rail rail_electric rail_fast ship" speed="36.11" length="23.60" width="3.50" customShape="1" shape="-302.35,531.44 -306.83,520.51 -311.30,509.60"/>
    </edge>
    <edge id="31869" from="38" to="37" priority="3" type="highway.residential" spreadType="center" length="23.59" shape="-315.67,495.25 -285.61,545.26">
        <lane id="31869_0" index="0" disallow="pedestrian tram rail_urban rail rail_electric rail_fast ship" speed="36.11" length="23.59" width="3.50" customShape="1" shape="-308.06,508.28 -303.60,519.18 -299.12,530.11"/>
    </edge>
    <edge id="31871" from="33" to="37" priority="3" type="highway.residential" spreadType="center" length="70.00" shape="-258.74,631.44 -288.77,546.72">
        <lane id="31871_0" index="0" disallow="pedestrian tram rail_urban rail rail_electric rail_fast ship" speed="36.11" length="70.00" width="3.50" customShape="1" shape="-258.74,631.44 -266.49,613.91 -287.04,567.42"/>
    </edge>
    <edge id="31872" from="37" to="16" priority="3" type="highway.residential" spreadType="center" length="70.00" shape="-285.47,545.55 -255.53,630.05">
        <lane id="31872_0" index="0" disallow="pedestrian tram rail_urban rail rail_electric rail_fast ship" speed="36.11" length="70.00" width="3.50" customShape="1" shape="-283.83,566.03 -263.29,612.49 -255.53,630.05"/>
    </edge>
    <edge id="32081" from="39" to="26" priority="3" type="highway.residential" spreadType="center" length="70.00" shape="-226.17,524.29 -147.50,480.76">
        <lane id="32081_0" index="0" disallow="pedestrian tram rail_urban rail rail_electric rail_fast ship" speed="36.11" length="70.00" width="3.50" customShape="1" shape="-211.01,510.19 -147.50,480.76"/>
    </edge>
    <edge id="32082" from="36" to="39" priority="3" type="highway.residential" spreadType="center" length="70.02" shape="-146.01,483.92 -224.47,527.36">
        <lane id="32082_0" index="0" disallow="pedestrian tram rail_urban rail rail_electric rail_fast ship" speed="36.11" length="70.02" width="3.50" customShape="1" shape="-146.01,483.92 -209.54,513.36"/>
    </edge>
    <edge id="32084" from="37" to="39" priority="3" type="highway.residential" spreadType="center" length="32.59" shape="-287.66,544.50 -225.79,524.13">
        <lane id="32084_0" index="0" disallow="pedestrian tram rail_urban rail rail_electric rail_fast ship" speed="36.11" length="32.59" width="3.50" customShape="1" shape="-275.87,539.41 -260.98,532.78 -246.10,526.14"/>
    </edge>
    <edge id="32085" from="39" to="37" priority="3" type="highway.residential" spreadType="center" length="32.57" shape="-224.70,527.46 -286.57,547.83">
        <lane id="32085_0" index="0" disallow="pedestrian tram rail_urban rail rail_electric rail_fast ship" speed="36.11" length="32.57" width="3.50" customShape="1" shape="-244.70,529.35 -259.56,535.97 -274.45,542.61"/>
    </edge>

    <junction id="12" type="dead_end" x="-383.06" y="543.65" incLanes="30859_0" intLanes="" shape="-381.96,545.01 -384.16,542.30" rightOfWay="edgePriority"/>
    <junction id="16" type="dead_end" x="-255.53" y="630.05" incLanes="31872_0" intLanes="" shape="-253.93,629.34 -257.13,630.76" rightOfWay="edgePriority"/>
    <junction id="25" type="dead_end" x="-317.60" y="375.45" incLanes="31800_0" intLanes="" shape="-319.26,375.98 -315.93,374.92" rightOfWay="edgePriority"/>
    <junction id="26" type="dead_end" x="-147.50" y="480.76" incLanes="32081_0" intLanes="" shape="-148.23,479.17 -146.76,482.34" rightOfWay="edgePriority"/>
    <junction id="27" type="dead_end" x="-192.38" y="602.16" incLanes="31634_0" intLanes="" shape="-190.75,601.51 -194.00,602.82" rightOfWay="edgePriority"/>
    <junction id="30" type="dead_end" x="-207.85" y="416.66" incLanes="30866_0" intLanes="" shape="-208.61,415.09 -207.09,418.24" rightOfWay="edgePriority"/>
    <junction id="31" type="dead_end" x="-205.99" y="419.65" incLanes="" intLanes="" shape="-206.75,418.07 -205.22,421.22" rightOfWay="edgePriority"/>
    <junction id="32" type="dead_end" x="-385.22" y="540.90" incLanes="" intLanes="" shape="-384.11,542.26 -386.32,539.54" rightOfWay="edgePriority"/>
    <junction id="33" type="dead_end" x="-258.74" y="631.44" incLanes="" intLanes="" shape="-257.14,630.73 -260.34,632.15" rightOfWay="edgePriority"/>
    <junction id="34" type="dead_end" x="-314.27" y="374.38" incLanes="" intLanes="" shape="-315.93,374.91 -312.60,373.85" rightOfWay="edgePriority"/>
    <junction id="35" type="dead_end" x="-195.62" y="603.48" incLanes="" intLanes="" shape="-194.00,602.82 -197.24,604.13" rightOfWay="edgePriority"/>
    <junction id="36" type="dead_end" x="-146.01" y="483.92" incLanes="" intLanes="" shape="-146.74,482.34 -145.27,485.51" rightOfWay="edgePriority"/>
    <junction id="37" type="priority" x="-287.11" y="546.17" incLanes="31871_0 32085_0 31869_0" intLanes=":37_0_0 :37_1_0 :37_2_0 :37_3_0 :37_4_0 :37_5_0" shape="-288.63,568.15 -282.23,565.32 -283.77,560.71 -284.13,556.54 -283.30,552.81 -281.30,549.50 -278.10,546.64 -273.73,544.21 -276.58,537.81 -281.27,539.41 -285.48,539.82 -289.20,539.02 -292.45,537.03 -295.21,533.84 -297.50,529.45 -303.97,532.10">
        <request index="0" response="000000" foes="001000" cont="0"/>
        <request index="1" response="110000" foes="111000" cont="0"/>
        <request index="2" response="100000" foes="100000" cont="0"/>
        <request index="3" response="100011" foes="100011" cont="0"/>
        <request index="4" response="000000" foes="000010" cont="0"/>
        <request index="5" response="000000" foes="001110" cont="0"/>
    </junction>
    <junction id="38" type="priority" x="-317.14" y="496.19" incLanes="31868_0 30862_0 30860_0" intLanes=":38_0_0 :38_1_0 :38_2_0 :38_3_0 :38_4_0 :38_5_0" shape="-312.92,510.27 -306.44,507.62 -308.59,501.39 -309.67,495.78 -309.68,490.81 -308.63,486.46 -306.50,482.75 -303.31,479.66 -307.49,474.05 -338.62,500.12 -334.14,505.50 -329.56,502.30 -325.40,500.71 -321.65,500.70 -318.33,502.30 -315.41,505.48">
        <request index="0" response="001000" foes="001000" cont="0"/>
        <request index="1" response="111000" foes="111000" cont="0"/>
        <request index="2" response="000000" foes="100000" cont="0"/>
        <request index="3" response="000000" foes="100011" cont="0"/>
        <request index="4" response="000000" foes="000010" cont="0"/>
        <request index="5" response="001100" foes="001110" cont="0"/>
    </junction>
    <junction id="39" type="priority" x="-225.29" y="525.81" incLanes="31633_0 32082_0 32084_0" intLanes=":39_0_0 :39_1_0 :39_2_0 :39_3_0 :39_4_0 :39_5_0" shape="-223.45,539.22 -216.96,536.60 -218.43,531.82 -218.76,527.51 -217.96,523.66 -216.04,520.29 -212.98,517.39 -208.80,514.95 -211.74,508.60 -246.84,524.55 -243.99,530.95 -239.37,529.37 -235.23,528.98 -231.57,529.76 -228.39,531.73 -225.68,534.89">
        <request index="0" response="001000" foes="001000" cont="0"/>
        <request index="1" response="111000" foes="111000" cont="0"/>
        <request index="2" response="000000" foes="100000" cont="0"/>
        <request index="3" response="000000" foes="100011" cont="0"/>
        <request index="4" response="000000" foes="000010" cont="0"/>
        <request index="5" response="001100" foes="001110" cont="0"/>
    </junction>
    <junction id="40" type="priority" x="-288.25" y="455.43" incLanes="30865_0 31801_0 30863_0" intLanes=":40_0_0 :40_1_0 :40_2_0 :40_3_0 :40_4_0 :40_5_0" shape="-266.98,453.86 -270.61,447.88 -275.45,450.26 -279.73,451.20 -283.45,450.70 -286.62,448.75 -289.23,445.36 -291.28,440.53 -297.95,442.66 -296.36,448.89 -295.78,454.52 -296.20,459.55 -297.62,463.98 -300.04,467.81 -303.46,471.04 -299.28,476.65 -292.56,471.57 -287.62,467.77 -283.52,464.67 -279.34,461.70 -274.14,458.29">
        <request index="0" response="000000" foes="001000" cont="0"/>
        <request index="1" response="110000" foes="111000" cont="0"/>
        <request index="2" response="100000" foes="100000" cont="0"/>
        <request index="3" response="100011" foes="100011" cont="0"/>
        <request index="4" response="000000" foes="000010" cont="0"/>
        <request index="5" response="000000" foes="001110" cont="0"/>
    </junction>

    <connection from="30860" to="30863" fromLane="0" toLane="0" contPos="-4.00" shape="-337.49,501.46 -324.13,490.00 -313.82,481.27 -306.45,475.45" via=":38_4_0" dir="s" state="M"/>
    <connection from="30860" to="31869" fromLane="0" toLane="0" contPos="-4.00" shape="-337.49,501.46 -335.34,499.77 -333.04,498.20 -330.59,496.81 -327.97,495.71 -326.54,495.28 -325.08,494.98 -323.58,494.83 -322.05,494.86 -320.52,495.08 -319.03,495.50 -317.61,496.10 -316.29,496.86 -315.08,497.76 -313.98,498.75 -312.98,499.82 -312.06,500.96 -310.51,503.30 -309.19,505.75 -308.06,508.28" via=":38_5_0" dir="l" state="m"/>
    <connection from="30862" to="31869" fromLane="0" toLane="0" contPos="-4.00" shape="-304.30,478.21 -305.93,479.57 -307.37,481.06 -308.62,482.70 -309.66,484.47 -310.47,486.36 -311.05,488.34 -311.41,490.39 -311.56,492.49 -311.53,494.60 -311.17,497.81 -310.50,501.00 -309.59,504.14 -308.06,508.28" via=":38_2_0" dir="r" state="M"/>
    <connection from="30862" to="30859" fromLane="0" toLane="0" contPos="-4.00" shape="-304.30,478.21 -311.64,484.01 -321.90,492.70 -335.26,504.15" via=":38_3_0" dir="s" state="M"/>
    <connection from="30863" to="31800" fromLane="0" toLane="0" contPos="-4.00" shape="-302.42,472.44 -300.79,471.14 -299.31,469.72 -298.00,468.16 -296.86,466.49 -295.91,464.70 -295.15,462.81 -294.59,460.85 -294.22,458.84 -293.97,455.72 -294.08,452.57 -294.48,449.42 -295.11,446.29 -296.28,442.13" via=":40_4_0" dir="r" state="M"/>
    <connection from="30863" to="30866" fromLane="0" toLane="0" contPos="-4.00" shape="-302.42,472.44 -284.50,459.48 -273.26,451.70 -269.70,449.37" via=":40_5_0" dir="s" state="M"/>
    <connection from="30865" to="30862" fromLane="0" toLane="0" contPos="-4.00" shape="-267.85,452.34 -271.33,454.62 -282.50,462.36 -300.33,475.25" via=":40_0_0" dir="s" state="M"/>