<!-- generated on 2020-12-18 15:54:07.351804 by ipykernel_launcher.py v1_2_0+5214-53edc58fcd
-->
<edges>
	<edge from="1" function="normal" id="12" length="74.2858988676986" numLanes="5" priority="1" speed="36.11111111111111" spreadType="center" to="2">
		<lane allow="moped bicycle pedestrian custom1 trailer evehicle rail_urban ship private vip custom2 authority delivery rail_electric taxi tram army hov coach motorcycle passenger rail emergency" index="0" length="74.2858988676986" shape="-30.5594,29.11175 -29.11355,27.76095 -26.27585,24.996850000000002 -21.73625,20.75085 -18.2181,17.506500000000003 -15.3126,14.8124 -7.5005999999999995,7.6956500000000005 -6.92035,7.1579999999999995 -4.5586,4.98635 2.7483,-1.6289 3.5477,-2.3613 6.4669,-5.07755 9.52915,-7.8268 14.34255,-11.995999999999999 17.29005,-14.6409 18.83845,-15.98035 24.776600000000002,-21.144350000000003 24.78605,-21.1526" speed="36.11111111111111" width="3.5047820959369207"/>
		<lane allow="moped bicycle pedestrian custom1 trailer evehicle rail_urban ship private truck vip custom2 authority delivery rail_electric taxi tram army hov coach motorcycle passenger rail emergency" index="1" length="74.2858988676986" shape="-28.192050000000002,31.63565 -26.71975,30.2218 -25.979999999999997,29.48205 -23.984299999999998,27.5775 -17.980150000000002,22.07085 -15.8326,20.07955 -15.07585,19.3739 -12.9498,17.41075 -7.296900000000001,12.282399999999999 -5.09175,10.261700000000001 -4.40305,9.61955 -2.22495,7.63085 3.9088000000000003,2.11655 5.9796,0.21524999999999994 6.8019,-0.55155 8.84035,-2.4086 14.6643,-7.527699999999999 16.70045,-9.36085 17.550800000000002,-10.1538 19.55025,-11.960650000000001 25.6632,-17.288400000000003 27.0614,-18.5456" speed="36.11111111111111" width="3.250550685653123"/>
		<lane allow="moped bicycle pedestrian custom1 trailer evehicle rail_urban ship private truck vip custom2 authority delivery rail_electric taxi tram army hov coach motorcycle passenger bus rail emergency" index="2" length="74.2858988676986" shape="-25.9273,34.05015 -23.7199,31.9285 -21.46515,29.854950000000002 -18.601,27.1215 -15.7377,24.528950000000002 -12.8308,21.865850000000002 -10.2202,19.4968 -7.309100000000001,16.80885 -5.0631,14.762699999999999 -2.15935,12.09135 0.56805,9.634 3.4937499999999995,6.96265 6.13935,4.5935500000000005 9.03955,1.9414500000000001 11.6034,-0.3501 14.53195,-3.018 16.79545,-4.9845500000000005 19.72325,-7.58625 22.4861,-9.971250000000001 25.424799999999998,-12.626999999999999 27.8643,-14.769850000000002 29.2558,-16.03135" speed="36.11111111111111" width="3.1897109727998862"/>
		<lane allow="moped bicycle pedestrian custom1 trailer evehicle rail_urban ship private truck vip custom2 authority delivery rail_electric taxi tram army hov coach motorcycle passenger rail emergency" index="3" length="74.2858988676986" shape="-23.64715,36.481049999999996 -19.18415,32.32315 -19.17165,32.31065 -16.38185,29.618000000000002 -16.202199999999998,29.4502 -8.21125,22.1981 -7.9484,21.95685 -5.33315,19.518099999999997 -5.06985,19.2746 2.6369499999999997,12.24215 2.80675,12.0857 5.51945,9.5561 5.652699999999999,9.43455 13.662849999999999,2.2667 13.83995,2.10435 16.53835,-0.41195000000000004 16.659950000000002,-0.5218 24.69715,-7.44355 24.78145,-7.5197 27.63545,-10.17885 27.75365,-10.2851 31.472900000000003,-13.4911" speed="36.11111111111111" width="3.2118758662189917"/>
		<lane allow="moped bicycle pedestrian custom1 trailer evehicle rail_urban ship private truck vip custom2 authority delivery rail_electric taxi tram army hov coach motorcycle passenger bus rail emergency" index="4" length="74.2858988676986" shape="-21.290100000000002,38.99395 -16.7373,34.72355 -16.451999999999998,34.45675 -13.843499999999999,32.024249999999995 -13.540500000000002,31.7445 -5.8950499999999995,24.7499 -5.6043,24.4814 -2.9836,22.03765 -2.6824000000000003,21.7592 4.9409,14.7667 5.2314,14.498000000000001 7.8505,12.05585 8.17145,11.76365 15.949300000000001,4.82235 16.24165,4.55565 18.878700000000002,2.09775 19.215049999999998,1.79535 27.0655,-5.06385 27.3592,-5.328950000000001 30.0103,-7.79875 30.37305,-8.1175 33.7084,-10.92975" speed="36.11111111111111" width="3.479396558312949"/>
	</edge>
	<edge from="2" function="normal" id="8" length="136.9895016535533" numLanes="6" priority="1" speed="36.11111111111111" spreadType="center" to="3">
		<lane allow="moped bicycle pedestrian custom1 trailer evehicle rail_urban ship private truck vip custom2 authority delivery rail_electric taxi tram army hov coach motorcycle passenger rail emergency" index="0" length="136.9895016535533" shape="22.3198,-23.9783 24.48405,-25.8333 25.20745,-26.47915 27.877299999999998,-28.79315 28.60065,-29.439 31.30275,-31.8173 32.0261,-32.4632 34.7435,-34.8518 35.46685,-35.49765 38.1367,-37.8117 38.8601,-38.45755 39.587050000000005,-39.088750000000005 41.59054999999999,-40.831149999999994 42.31345,-41.477599999999995 44.9969,-43.83835 45.7198,-44.4848 48.47195000000001,-46.8832 49.19485,-47.529650000000004 51.766549999999995,-49.7556 52.4894,-50.40205 55.20625,-52.7336 55.92915,-53.38 58.77305,-55.891 59.49595,-56.53745 62.155,-58.89045 62.877900000000004,-59.5369 65.69095,-61.958600000000004 66.41385,-62.605 69.04415,-64.907 69.767,-65.55345 72.47489999999999,-67.922 73.11945,-68.4989 73.2013,-68.57124999999999 76.02645,-70.95285 76.75005,-71.5984 79.37084999999999,-73.95519999999999 80.09450000000001,-74.60069999999999 82.7654,-76.91375 83.489,-77.55930000000001 86.28184999999999,-80.0072 87.00545,-80.65275 89.5157,-82.81575000000001 90.23935,-83.4613 93.01435000000001,-85.88665 93.73795,-86.53219999999999 96.43455,-88.79374999999999 97.1582,-89.43934999999999 99.8998,-91.89384999999999 100.62344999999999,-92.5394 101.28165,-93.11045 103.35755,-94.91235 104.08105,-95.55805000000001 106.73285,-97.8434 107.45635,-98.48915 110.15115,-100.81049999999999 110.8746,-101.4562 115.37875,-105.3623 116.10225,-106.00805 118.97435,-108.4649 119.69785,-109.1106 122.57765,-111.58975000000001 123.30115,-112.23545 125.48925,-114.15385" speed="36.11111111111111" width="3.681428812295565"/>
		<lane allow="moped bicycle pedestrian custom1 trailer evehicle rail_urban ship private vip custom2 authority delivery rail_electric taxi tram army hov coach motorcycle passenger rail emergency" index="1" length="136.9895016535533" shape="24.78605,-21.1526 25.3919,-21.66945 26.972450000000002,-23.07245 27.68535,-23.73 28.3245,-24.30045 30.169249999999998,-25.82655 30.82385,-26.381300000000003 30.936799999999998,-26.4724 31.5291,-26.971249999999998 31.71055,-27.1363 33.80385,-29.03 33.82535,-29.04975 34.52365,-29.694 34.616600000000005,-29.7776 37.18,-32.031549999999996 37.8609,-32.639450000000004 37.9304,-32.6997 40.58865,-35.0059 41.2538,-35.5999 41.31725,-35.6552 41.78835,-36.0656 44.05565,-38.1014 44.6952,-38.69125 44.71945,-38.71265 50.8544,-43.990700000000004 51.52905,-44.5809 51.6272,-44.66435 52.5352,-45.43735 52.599900000000005,-45.497299999999996 54.2682,-46.986850000000004 54.981049999999996,-47.64445 55.497550000000004,-48.09845 57.647099999999995,-49.9324 58.30215,-50.51465 58.35395,-50.56 61.18625,-53.04675 61.87665,-53.66 61.9263,-53.7034 63.538000000000004,-55.1218 64.64620000000001,-56.1339 65.35915,-56.7915 66.51255,-57.813 68.10815,-59.172349999999994 68.75235,-59.74235 68.8219,-59.80255 71.45070000000001,-62.0809 72.1192,-62.671949999999995 72.1906,-62.7337 74.5119,-64.7445 74.53295,-64.7629 74.92410000000001,-65.1035 75.65455,-65.7539 77.59280000000001,-67.3839 78.4849,-68.13865 79.1522,-68.73495 81.7479,-71.0726 81.7976,-71.11655 82.49234999999999,-71.7384 82.56225,-71.799 85.21905,-74.1052 85.36575,-74.23575 85.8719,-74.6874 85.92895,-74.73734999999999 88.4244,-76.92195000000001 88.75049999999999,-77.2113 89.47030000000001,-77.8613 91.967,-80.0391 92.65870000000001,-80.66375 92.70075,-80.7008 95.447,-83.13114999999999 96.1668,-83.78115 97.11685,-84.5847 98.8412,-86.03004999999999 99.50200000000001,-86.61855 99.9615,-87.02825 102.2065,-89.0193 102.9416,-89.66865000000001 103.02485,-89.7401 105.76395,-92.09395 106.41465,-92.66805 106.5075,-92.74735000000001 107.9332,-93.96525 109.17835,-95.0362 109.83535,-95.62129999999999 109.91624999999999,-95.6909 110.9272,-96.5618 112.6075,-98.02425 113.3279,-98.6736 117.81245,-102.6014 118.53285,-103.25075000000001 118.6138,-103.3196 121.3912,-105.6908 121.50405,-105.7905 121.9529,-106.18365 122.0643,-106.2771 124.9562,-108.6995 125.28535,-108.98115 125.37445,-109.06055 125.68854999999999,-109.33805 125.75720000000001,-109.39735 127.9508,-111.31739999999999" speed="36.11111111111111" width="3.5043532142179963"/>
		<lane allow="moped bicycle pedestrian custom1 trailer evehicle rail_urban ship private vip custom2 authority delivery rail_electric taxi tram army hov coach motorcycle passenger rail emergency" index="2" length="136.9895016535533" shape="27.0614,-18.5456 27.66735,-19.091700000000003 28.54965,-19.9145 30.42575,-21.58245 30.5886,-21.715400000000002 33.96025,-24.4857 36.4845,-26.723799999999997 36.5914,-26.82245 36.9611,-27.163 37.01745,-27.21275 39.58435,-29.530450000000002 44.04365,-33.379000000000005 46.91335,-35.93625 47.0313,-36.036950000000004 47.6691,-36.5813 47.745450000000005,-36.651700000000005 50.64265,-39.2155 54.82755,-42.769999999999996 57.67235,-45.313900000000004 57.76975,-45.39805 58.7752,-46.2676 61.72555,-48.9189 65.8336,-52.44205 68.69305,-54.9863 68.805,-55.08215 69.91865,-56.037 69.97775,-56.0917 72.8754,-58.6822 76.84110000000001,-62.1519 79.81495000000001,-64.7702 80.93795,-65.7621 83.91605000000001,-68.35955 87.7308,-71.68934999999999 90.72655,-74.2955 91.83404999999999,-75.27225 94.80395,-77.89005 99.32985,-81.89335 99.36035,-81.91990000000001 102.34185,-84.52109999999999 102.93445,-85.03335 105.93610000000001,-87.61975000000001 110.22059999999999,-91.30539999999999 113.20904999999999,-93.8988 120.856,-100.61535 120.88885,-100.64385 123.88365,-103.2432 125.42325,-104.543 127.73585,-106.5008 128.4058,-107.08314999999999 130.22875,-108.69255000000001" speed="36.11111111111111" width="3.2168796822386825"/>
		<lane allow="moped bicycle pedestrian custom1 trailer evehicle rail_urban ship private truck vip custom2 authority delivery rail_electric taxi tram army hov coach motorcycle passenger rail emergency" index="3" length="136.9895016535533" shape="29.2558,-16.03135 30.7265,-17.3644 30.826749999999997,-17.45065 33.703050000000005,-19.935299999999998 36.6652,-22.564799999999998 38.80055,-24.3694 41.6372,-26.888599999999997 41.75575,-26.9894 44.768550000000005,-29.55105 47.72645,-32.18775 49.8684,-34.037400000000005 52.7296,-36.6222 52.8204,-36.70085 55.8839,-39.357150000000004 58.83695,-41.9978 60.87885,-43.72055 63.74165000000001,-46.238550000000004 63.87375,-46.34945 67.00945,-48.987899999999996 69.96965,-51.622550000000004 72.13425000000001,-53.48295 74.99080000000001,-56.055499999999995 75.0618,-56.117900000000006 78.24164999999999,-58.919799999999995 81.1697,-61.58985 83.05295,-63.2415 83.08994999999999,-63.27355 86.08015,-65.86285000000001 89.30090000000001,-68.6533 89.3121,-68.6631 92.3026,-71.2646 94.07485,-72.8271 97.04804999999999,-75.446 100.24340000000001,-78.27045 103.22935000000001,-80.8752 105.112,-82.541 108.08395,-85.16125 111.48315,-88.1529 114.47579999999999,-90.74995 122.54384999999999,-97.70895 122.5563,-97.7198 125.54695000000001,-100.31505 127.51804999999999,-102.01115 130.5152,-104.59425 132.37375,-106.2209" speed="36.11111111111111" width="3.1175293182262114"/>
		<lane allow="moped bicycle pedestrian custom1 trailer evehicle rail_urban ship private vip custom2 authority delivery rail_electric taxi tram army hov coach motorcycle passenger rail emergency" index="4" length="136.9895016535533" shape="31.472900000000003,-13.4911 35.78165,-17.20515 35.974149999999995,-17.38055 38.646150000000006,-19.8722 38.707300000000004,-19.92925 38.8339,-20.037149999999997 46.9741,-26.976799999999997 47.143,-27.129649999999998 49.924949999999995,-29.720100000000002 50.086349999999996,-29.86485 58.0954,-36.7419 58.168549999999996,-36.809200000000004 60.95255,-39.4053 69.20185000000001,-46.453900000000004 69.3227,-46.5642 72.13665,-49.1863 72.2666,-49.30205 80.41725,-56.300399999999996 80.53424999999999,-56.40715 83.27314999999999,-58.961200000000005 91.2431,-65.878 91.52465000000001,-66.12174999999999 94.22995,-68.4734 94.51785,-68.7243 102.2988,-75.5947 102.42285,-75.70415 102.4562,-75.73315 105.333,-78.23435 105.462,-78.34805 113.56745,-85.58394999999999 113.5993,-85.6124 113.64959999999999,-85.6562 116.57975,-88.20375 116.6411,-88.25710000000001 124.711,-95.235 124.8486,-95.35470000000001 127.7004,-97.83375 127.85045,-97.963 134.5404,-103.7242" speed="36.11111111111111" width="3.2654832184532787"/>
		<lane allow="moped bicycle pedestrian custom1 trailer evehicle rail_urban ship private vip custom2 authority delivery rail_electric taxi tram army hov coach motorcycle passenger rail emergency" index="5" length="136.9895016535533" shape="33.7084,-10.92975 38.04145,-14.5833 38.27335,-14.78605 38.39835,-14.9023 41.009600000000006,-17.331699999999998 41.362,-17.64515 49.4323,-24.57325 49.674499999999995,-24.788 49.7777,-24.8841 52.38805,-27.31445 52.75345,-27.63545 60.39045,-34.06975 60.62195,-34.272000000000006 60.74785,-34.3891 63.35915,-36.81845 63.69485,-37.1212 71.59165,-44.0565 71.8468,-44.28635 71.92215,-44.35655 74.5316,-46.78785 74.8914,-47.10525 82.65845,-53.689800000000005 82.89345,-53.89615 83.01185000000001,-54.0064 85.62289999999999,-56.43605 85.9633,-56.74185 93.4817,-63.29885 93.87010000000001,-63.63705 96.46975,-65.89685 96.8507,-66.2288 104.62315000000001,-73.01805 105.0104,-73.35544999999999 107.61005,-75.61535 107.9502,-75.91460000000001 107.98240000000001,-75.94325 115.8902,-82.99055000000001 116.2628,-83.31835000000001 118.86250000000001,-85.57825 119.2501,-85.9154 127.10835,-92.75720000000001 127.49799999999999,-93.09615 130.09765,-95.35605000000001 130.4897,-95.69655 136.7741,-101.1503" speed="36.11111111111111" width="3.479158429850529"/>
	</edge>
	<edge from="4" function="normal" id="9" length="75.03358321063307" numLanes="1" priority="1" speed="36.11111111111111" spreadType="center" to="2">
		<lane allow="moped bicycle pedestrian custom1 trailer evehicle rail_urban ship private truck vip custom2 authority delivery rail_electric taxi tram army hov coach motorcycle passenger rail emergency" index="0" length="75.03358321063307" shape="-35.41135,23.93905 -34.5888,23.3064 -28.15205,18.1693 -23.023899999999998,13.99535 -15.3023,7.7096 -13.648150000000001,6.34295 -5.09655,-0.76035 6.7485,-10.54575 7.069699999999999,-10.8112 12.92655,-15.792950000000001 16.386499999999998,-18.79785 22.3198,-23.9783" speed="36.11111111111111" width="3.640006708785027"/>
	</edge>
</edges>
