<!-- generated on 2020-12-18 15:54:07.436824 by ipykernel_launcher.py v1_2_0+5214-53edc58fcd
-->
<nodes>
	<node id="1" type="from" x="-25.9232" y="34.05450999999999"/>
	<node id="2" type="to" x="29.256910000000005" y="-16.03008"/>
	<node id="3" type="to" x="131.22617499999998" y="-107.54320000000001"/>
	<node id="4" type="from" x="-35.41135" y="23.93905"/>
</nodes>
