<?xml version="1.0" encoding="UTF-8"?>

<!-- generated on Fri Dec 18 15:54:07 2020 by Eclipse SUMO netconvert Version 1.8.0
<configuration xmlns:xsi="http://www.w3.org/2001/XMLSchema-instance" xsi:noNamespaceSchemaLocation="http://sumo.dlr.de/xsd/netconvertConfiguration.xsd">

    <input>
        <node-files value="./converted_scenarios/NGSIM/US101/USA_US101-17_1_I-1-1/nodes.net.xml"/>
        <edge-files value="./converted_scenarios/NGSIM/US101/USA_US101-17_1_I-1-1/edges.net.xml"/>
        <connection-files value="./converted_scenarios/NGSIM/US101/USA_US101-17_1_I-1-1/_connections.net.xml"/>
        <tllogic-files value="./converted_scenarios/NGSIM/US101/USA_US101-17_1_I-1-1/_tll.net.xml"/>
    </input>

    <output>
        <output-file value="./converted_scenarios/NGSIM/US101/USA_US101-17_1_I-1-1/USA_US101-17_1_I-1-1.net.xml"/>
    </output>

    <processing>
        <plain.extend-edge-shape value="true"/>
        <geometry.remove.keep-edges.explicit value="true"/>
        <geometry.avoid-overlap value="true"/>
        <offset.disable-normalization value="true"/>
    </processing>

    <junctions>
        <no-turnarounds value="true"/>
        <junctions.internal-link-detail value="20"/>
    </junctions>

    <report>
        <aggregate-warnings value="5"/>
    </report>

    <random_number>
        <seed value="1234"/>
    </random_number>

</configuration>
-->

<net version="1.6" junctionCornerDetail="5" junctionLinkDetail="20" limitTurnSpeed="5.50" xmlns:xsi="http://www.w3.org/2001/XMLSchema-instance" xsi:noNamespaceSchemaLocation="http://sumo.dlr.de/xsd/net_file.xsd">

    <location netOffset="0.00,0.00" convBoundary="-35.41,-107.54,131.23,34.05" origBoundary="-35.41,-114.15,136.77,38.99" projParameter="!"/>

    <edge id=":2_0" function="internal">
        <lane id=":2_0_0" index="0" disallow="bus rail_fast" speed="36.11" length="5.26" width="3.68" shape="21.19,-22.99 25.17,-26.44"/>
    </edge>
    <edge id=":2_1" function="internal">
        <lane id=":2_1_0" index="0" disallow="bus truck rail_fast" speed="36.11" length="5.25" width="3.50" shape="23.65,-20.17 27.59,-23.65"/>
        <lane id=":2_1_1" index="1" disallow="bus truck rail_fast" speed="36.11" length="5.25" width="3.22" shape="25.94,-17.54 29.84,-21.06"/>
        <lane id=":2_1_2" index="2" disallow="bus rail_fast" speed="36.11" length="5.25" width="3.12" shape="28.13,-15.01 32.06,-18.51"/>
        <lane id=":2_1_3" index="3" disallow="bus truck rail_fast" speed="36.11" length="5.25" width="3.27" shape="30.32,-12.50 34.30,-15.93"/>
        <lane id=":2_1_4" index="4" disallow="bus truck rail_fast" speed="36.11" length="5.25" width="3.48" shape="32.54,-9.95 36.56,-13.33"/>
    </edge>

    <edge id="12" from="1" to="2" priority="1" spreadType="center" length="74.29">
        <lane id="12_0" index="0" disallow="bus truck rail_fast" speed="36.11" length="74.29" width="3.50" customShape="1" shape="-30.56,29.11 -29.11,27.76 -26.28,25.00 -21.74,20.75 -18.22,17.51 -15.31,14.81 -7.50,7.70 -6.92,7.16 -4.56,4.99 2.75,-1.63 3.55,-2.36 6.47,-5.08 9.53,-7.83 14.34,-12.00 17.29,-14.64 18.84,-15.98 23.65,-20.17"/>
        <lane id="12_1" index="1" disallow="bus rail_fast" speed="36.11" length="74.29" width="3.25" customShape="1" shape="-28.19,31.64 -26.72,30.22 -25.98,29.48 -23.98,27.58 -17.98,22.07 -15.83,20.08 -15.08,19.37 -12.95,17.41 -7.30,12.28 -5.09,10.26 -4.40,9.62 -2.22,7.63 3.91,2.12 5.98,0.22 6.80,-0.55 8.84,-2.41 14.66,-7.53 16.70,-9.36 17.55,-10.15 19.55,-11.96 25.66,-17.29 25.94,-17.54"/>
        <lane id="12_2" index="2" disallow="rail_fast" speed="36.11" length="74.29" width="3.19" customShape="1" shape="-25.93,34.05 -23.72,31.93 -21.47,29.85 -18.60,27.12 -15.74,24.53 -12.83,21.87 -10.22,19.50 -7.31,16.81 -5.06,14.76 -2.16,12.09 0.57,9.63 3.49,6.96 6.14,4.59 9.04,1.94 11.60,-0.35 14.53,-3.02 16.80,-4.98 19.72,-7.59 22.49,-9.97 25.42,-12.63 27.86,-14.77 28.13,-15.01"/>
        <lane id="12_3" index="3" disallow="bus rail_fast" speed="36.11" length="74.29" width="3.21" customShape="1" shape="-23.65,36.48 -19.18,32.32 -16.38,29.62 -16.20,29.45 -8.21,22.20 -7.95,21.96 -5.33,19.52 -5.07,19.27 2.64,12.24 2.81,12.09 5.52,9.56 5.65,9.43 13.66,2.27 13.84,2.10 16.54,-0.41 16.66,-0.52 24.70,-7.44 24.78,-7.52 27.64,-10.18 27.75,-10.29 30.32,-12.50"/>
        <lane id="12_4" index="4" disallow="rail_fast" speed="36.11" length="74.29" width="3.48" customShape="1" shape="-21.29,38.99 -16.74,34.72 -16.45,34.46 -13.84,32.02 -13.54,31.74 -5.90,24.75 -5.60,24.48 -2.98,22.04 -2.68,21.76 4.94,14.77 5.23,14.50 7.85,12.06 8.17,11.76 15.95,4.82 16.24,4.56 18.88,2.10 19.22,1.80 27.07,-5.06 27.36,-5.33 30.01,-7.80 30.37,-8.12 32.54,-9.95"/>
    </edge>
    <edge id="8" from="2" to="3" priority="1" spreadType="center" length="136.99">
        <lane id="8_0" index="0" disallow="bus rail_fast" speed="36.11" length="136.99" width="3.68" acceleration="1" customShape="1" shape="25.17,-26.44 27.88,-28.79 28.60,-29.44 31.30,-31.82 32.03,-32.46 34.74,-34.85 35.47,-35.50 38.14,-37.81 38.86,-38.46 39.59,-39.09 41.59,-40.83 42.31,-41.48 45.00,-43.84 45.72,-44.48 48.47,-46.88 49.19,-47.53 51.77,-49.76 52.49,-50.40 55.21,-52.73 55.93,-53.38 58.77,-55.89 59.50,-56.54 62.16,-58.89 62.88,-59.54 65.69,-61.96 66.41,-62.60 69.04,-64.91 69.77,-65.55 72.47,-67.92 73.12,-68.50 73.20,-68.57 76.03,-70.95 76.75,-71.60 79.37,-73.96 80.09,-74.60 82.77,-76.91 83.49,-77.56 86.28,-80.01 87.01,-80.65 89.52,-82.82 90.24,-83.46 93.01,-85.89 93.74,-86.53 96.43,-88.79 97.16,-89.44 99.90,-91.89 100.62,-92.54 101.28,-93.11 103.36,-94.91 104.08,-95.56 106.73,-97.84 107.46,-98.49 110.15,-100.81 110.87,-101.46 115.38,-105.36 116.10,-106.01 118.97,-108.46 119.70,-109.11 122.58,-111.59 123.30,-112.24 125.49,-114.15"/>
        <lane id="8_1" index="1" disallow="bus truck rail_fast" speed="36.11" length="136.99" width="3.50" customShape="1" shape="27.59,-23.65 27.69,-23.73 28.32,-24.30 30.17,-25.83 30.82,-26.38 30.94,-26.47 31.53,-26.97 31.71,-27.14 33.80,-29.03 34.52,-29.69 34.62,-29.78 37.18,-32.03 37.86,-32.64 40.59,-35.01 41.25,-35.60 41.79,-36.07 44.06,-38.10 44.70,-38.69 50.85,-43.99 51.53,-44.58 51.63,-44.66 52.54,-45.44 54.27,-46.99 54.98,-47.64 55.50,-48.10 57.65,-49.93 58.30,-50.51 61.19,-53.05 61.88,-53.66 63.54,-55.12 64.65,-56.13 65.36,-56.79 66.51,-57.81 68.11,-59.17 68.75,-59.74 71.45,-62.08 72.12,-62.67 74.51,-64.74 74.92,-65.10 75.65,-65.75 77.59,-67.38 78.48,-68.14 79.15,-68.73 81.75,-71.07 82.49,-71.74 85.22,-74.11 85.37,-74.24 85.87,-74.69 88.42,-76.92 88.75,-77.21 89.47,-77.86 91.97,-80.04 92.66,-80.66 95.45,-83.13 96.17,-83.78 97.12,-84.58 98.84,-86.03 99.50,-86.62 99.96,-87.03 102.21,-89.02 102.94,-89.67 103.02,-89.74 105.76,-92.09 106.41,-92.67 106.51,-92.75 107.93,-93.97 109.18,-95.04 109.84,-95.62 109.92,-95.69 110.93,-96.56 112.61,-98.02 113.33,-98.67 117.81,-102.60 118.53,-103.25 118.61,-103.32 121.39,-105.69 121.50,-105.79 121.95,-106.18 122.06,-106.28 124.96,-108.70 125.29,-108.98 125.37,-109.06 125.69,-109.34 127.95,-111.32"/>
        <lane id="8_2" index="2" disallow="bus truck rail_fast" speed="36.11" length="136.99" width="3.22" customShape="1" shape="29.84,-21.06 30.43,-21.58 30.59,-21.72 33.96,-24.49 36.48,-26.72 36.59,-26.82 36.96,-27.16 39.58,-29.53 44.04,-33.38 46.91,-35.94 47.03,-36.04 47.67,-36.58 47.75,-36.65 50.64,-39.22 54.83,-42.77 57.67,-45.31 57.77,-45.40 58.78,-46.27 61.73,-48.92 65.83,-52.44 68.69,-54.99 68.81,-55.08 69.92,-56.04 72.88,-58.68 76.84,-62.15 79.81,-64.77 80.94,-65.76 83.92,-68.36 87.73,-71.69 90.73,-74.30 91.83,-75.27 94.80,-77.89 99.33,-81.89 102.34,-84.52 102.93,-85.03 105.94,-87.62 110.22,-91.31 113.21,-93.90 120.86,-100.62 123.88,-103.24 125.42,-104.54 127.74,-106.50 128.41,-107.08 130.23,-108.69"/>
        <lane id="8_3" index="3" disallow="bus rail_fast" speed="36.11" length="136.99" width="3.12" customShape="1" shape="32.06,-18.51 33.70,-19.94 36.67,-22.56 38.80,-24.37 41.64,-26.89 41.76,-26.99 44.77,-29.55 47.73,-32.19 49.87,-34.04 52.73,-36.62 52.82,-36.70 55.88,-39.36 58.84,-42.00 60.88,-43.72 63.74,-46.24 63.87,-46.35 67.01,-48.99 69.97,-51.62 72.13,-53.48 74.99,-56.06 78.24,-58.92 81.17,-61.59 83.05,-63.24 86.08,-65.86 89.30,-68.65 92.30,-71.26 94.07,-72.83 97.05,-75.45 100.24,-78.27 103.23,-80.88 105.11,-82.54 108.08,-85.16 111.48,-88.15 114.48,-90.75 122.54,-97.71 125.55,-100.32 127.52,-102.01 130.52,-104.59 132.38,-106.23"/>
        <lane id="8_4" index="4" disallow="bus truck rail_fast" speed="36.11" length="136.99" width="3.27" customShape="1" shape="34.30,-15.93 35.78,-17.21 35.97,-17.38 38.65,-19.87 38.83,-20.04 46.97,-26.98 47.14,-27.13 49.92,-29.72 50.09,-29.86 58.10,-36.74 60.95,-39.41 69.20,-46.45 69.32,-46.56 72.14,-49.19 72.27,-49.30 80.42,-56.30 80.53,-56.41 83.27,-58.96 91.24,-65.88 91.52,-66.12 94.23,-68.47 94.52,-68.72 102.30,-75.59 102.42,-75.70 105.33,-78.23 105.46,-78.35 113.57,-85.58 113.65,-85.66 116.58,-88.20 124.71,-95.23 124.85,-95.35 127.70,-97.83 127.85,-97.96 134.56,-103.74"/>
        <lane id="8_5" index="5" disallow="bus truck rail_fast" speed="36.11" length="136.99" width="3.48" customShape="1" shape="36.56,-13.33 38.04,-14.58 38.27,-14.79 38.40,-14.90 41.01,-17.33 41.36,-17.65 49.43,-24.57 49.67,-24.79 49.78,-24.88 52.39,-27.31 52.75,-27.64 60.39,-34.07 60.62,-34.27 60.75,-34.39 63.36,-36.82 63.69,-37.12 71.59,-44.06 71.85,-44.29 71.92,-44.36 74.53,-46.79 74.89,-47.11 82.66,-53.69 82.89,-53.90 83.01,-54.01 85.62,-56.44 85.96,-56.74 93.48,-63.30 93.87,-63.64 96.47,-65.90 96.85,-66.23 104.62,-73.02 105.01,-73.36 107.61,-75.62 107.95,-75.91 115.89,-82.99 116.26,-83.32 118.86,-85.58 119.25,-85.92 127.11,-92.76 127.50,-93.10 130.10,-95.36 130.49,-95.70 136.81,-101.18"/>
    </edge>
    <edge id="9" from="4" to="2" priority="1" spreadType="center" length="75.03">
        <lane id="9_0" index="0" disallow="bus rail_fast" speed="36.11" length="75.03" width="3.64" customShape="1" shape="-35.41,23.94 -34.59,23.31 -28.15,18.17 -23.02,14.00 -15.30,7.71 -13.65,6.34 -5.10,-0.76 6.75,-10.55 7.07,-10.81 12.93,-15.79 16.39,-18.80 21.19,-22.99"/>
    </edge>

    <junction id="1" type="dead_end" x="-25.92" y="34.05" incLanes="" intLanes="" shape="-20.10,40.26 -31.76,27.83"/>
    <junction id="2" type="priority" x="29.26" y="-16.03" incLanes="9_0 12_0 12_1 12_2 12_3 12_4" intLanes=":2_0_0 :2_1_0 :2_1_1 :2_1_2 :2_1_3 :2_1_4" shape="37.70,-12.02 23.96,-27.83 19.99,-24.36 22.39,-21.62 22.50,-21.49 33.68,-8.63">
        <request index="0" response="000000" foes="000000" cont="0"/>
        <request index="1" response="000000" foes="000000" cont="0"/>
        <request index="2" response="000000" foes="000000" cont="0"/>
        <request index="3" response="000000" foes="000000" cont="0"/>
        <request index="4" response="000000" foes="000000" cont="0"/>
        <request index="5" response="000000" foes="000000" cont="0"/>
    </junction>
    <junction id="3" type="dead_end" x="131.23" y="-107.54" incLanes="8_0 8_1 8_2 8_3 8_4 8_5" intLanes="" shape="124.24,-115.51 137.95,-99.87"/>
    <junction id="4" type="dead_end" x="-35.41" y="23.94" incLanes="" intLanes="" shape="-34.30,25.38 -36.52,22.50"/>

    <connection from="12" to="8" fromLane="0" toLane="1" contPos="-4.00" via=":2_1_0" dir="s" state="M"/>
    <connection from="12" to="8" fromLane="1" toLane="2" contPos="-4.00" via=":2_1_1" dir="s" state="M"/>
    <connection from="12" to="8" fromLane="2" toLane="3" contPos="-4.00" via=":2_1_2" dir="s" state="M"/>
    <connection from="12" to="8" fromLane="3" toLane="4" contPos="-4.00" via=":2_1_3" dir="s" state="M"/>
    <connection from="12" to="8" fromLane="4" toLane="5" contPos="-4.00" via=":2_1_4" dir="s" state="M"/>
    <connection from="9" to="8" fromLane="0" toLane="0" contPos="-4.00" via=":2_0_0" dir="s" state="M"/>

    <connection from=":2_0" to="8" fromLane="0" toLane="0" dir="s" state="M"/>
    <connection from=":2_1" to="8" fromLane="0" toLane="1" dir="s" state="M"/>
    <connection from=":2_1" to="8" fromLane="1" toLane="2" dir="s" state="M"/>
    <connection from=":2_1" to="8" fromLane="2" toLane="3" dir="s" state="M"/>
    <connection from=":2_1" to="8" fromLane="3" toLane="4" dir="s" state="M"/>
    <connection from=":2_1" to="8" fromLane="4" toLane="5" dir="s" state="M"/>

</net>
