<routes>
	<vehicle depart="0.1" departLane="0" departPos="71.74119424119823" departSpeed="6.8672047" id="1" type="passenger">
		<route edges="50201 50213 50197"/>
	</vehicle>
	<vehicle depart="0.1" departLane="0" departPos="115.15209411091548" departSpeed="1.898408" id="2" type="passenger">
		<route edges="50195 50209 50203"/>
	</vehicle>
	<vehicle depart="0.1" departLane="0" departPos="144.98574529034707" departSpeed="2.5410919" id="4" type="passenger">
		<route edges="50205 50217 50199"/>
	</vehicle>
	<vehicle depart="0.1" departLane="0" departPos="152.98579770609908" departSpeed="3.2756784" id="5" type="passenger">
		<route edges="50205 50217 50199"/>
	</vehicle>
	<vehicle depart="0.1" departLane="0" departPos="43.796887289357606" departSpeed="1.0597015" id="7" type="passenger">
		<route edges="50201 50213 50197"/>
	</vehicle>
</routes>
