<routes>
	<vehicle depart="0.1" departLane="0" departPos="31.787900540418672" departSpeed="0.42211479" id="35" type="passenger">
		<route edges=":72_3 21483"/>
	</vehicle>
	<vehicle depart="0.1" departLane="0" departPos="23.98049010578107" departSpeed="0.31491877" id="313" type="passenger">
		<route edges=":72_3 21483"/>
	</vehicle>
	<vehicle depart="0.1" departLane="0" departPos="19.60197641758399" departSpeed="0.83949176" id="317" type="passenger">
		<route edges=":72_1 21479"/>
	</vehicle>
	<vehicle depart="0.1" departLane="0" departPos="9.829156804669548" departSpeed="0.55172207" id="324" type="passenger">
		<route edges=":72_3 21483"/>
	</vehicle>
	<vehicle depart="0.1" departLane="0" departPos="51.58545088520773" departSpeed="0.0056707572" id="333" type="passenger">
		<route edges="21480 21483"/>
	</vehicle>
	<vehicle depart="0.1" departLane="0" departPos="2.5" departSpeed="0.11306236" id="335" type="passenger">
		<route edges=":68_3 21486"/>
	</vehicle>
	<vehicle depart="0.1" departLane="0" departPos="42.43748902551456" departSpeed="0.21023066" id="347" type="passenger">
		<route edges="21480 21483"/>
	</vehicle>
	<vehicle depart="0.1" departLane="0" departPos="33.60002607776744" departSpeed="0.5470796" id="352" type="passenger">
		<route edges="21480 21483"/>
	</vehicle>
	<vehicle depart="0.1" departLane="0" departPos="24.913692834132412" departSpeed="1.1237914" id="361" type="passenger">
		<route edges="21480 21483"/>
	</vehicle>
	<vehicle depart="0.1" departLane="0" departPos="1.25" departSpeed="0.10905725" id="326" type="motorcycle">
		<route edges=":72_2 21452"/>
	</vehicle>
</routes>
