<routes>
	<vehicle depart="0.1" departLane="0" departPos="15.105054603451949" departSpeed="0.55692429" id="37" type="bicycle">
		<route edges="42245 42589"/>
	</vehicle>
	<vehicle depart="0.1" departLane="0" departPos="12.062014508622454" departSpeed="2.4048776" id="337" type="bus">
		<route edges="42242 42545"/>
	</vehicle>
	<vehicle depart="0.1" departLane="0" departPos="23.742532540074023" departSpeed="0.58565939" id="310" type="passenger">
		<route edges="42245 42589"/>
	</vehicle>
	<vehicle depart="0.1" departLane="0" departPos="20.194345295692493" departSpeed="2.6845325" id="312" type="passenger">
		<route edges="42242 42545"/>
	</vehicle>
	<vehicle depart="0.1" departLane="0" departPos="9.097977294227606" departSpeed="0.75411631" id="319" type="passenger">
		<route edges=":37_9 42545"/>
	</vehicle>
	<vehicle depart="0.1" departLane="0" departPos="14.238892924902252" departSpeed="1.0375612" id="322" type="passenger">
		<route edges="42245 42589"/>
	</vehicle>
	<vehicle depart="0.1" departLane="0" departPos="2.5" departSpeed="0.75262936" id="323" type="passenger">
		<route edges="42245 42589"/>
	</vehicle>
	<vehicle depart="0.1" departLane="0" departPos="34.35481641146185" departSpeed="8.5355133" id="333" type="motorcycle">
		<route edges=":39_5 42544 42245"/>
	</vehicle>
	<vehicle depart="0.1" departLane="0" departPos="3.75" departSpeed="7.3053801" id="30" type="truck">
		<route edges="42541"/>
	</vehicle>
	<vehicle depart="0.1" departLane="0" departPos="50.13793393768102" departSpeed="0.21966191" id="320" type="truck">
		<route edges="42542 42245"/>
	</vehicle>
</routes>
