<!-- generated on Wed Feb 10 12:28:01 2021 by Eclipse SUMO netconvert Version 1.8.0
<configuration xmlns:xsi="http://www.w3.org/2001/XMLSchema-instance" xsi:noNamespaceSchemaLocation="http://sumo.dlr.de/xsd/netconvertConfiguration.xsd">

    <input>
        <node-files value="./converted_scenarios/SUMO/DEU_Lohmar-20_1_I-1-1/DEU_Lohmar-20_1_I-1-1.nod.xml"/>
        <edge-files value="./converted_scenarios/SUMO/DEU_Lohmar-20_1_I-1-1/DEU_Lohmar-20_1_I-1-1.edg.xml"/>
        <connection-files value="./converted_scenarios/SUMO/DEU_Lohmar-20_1_I-1-1/DEU_Lohmar-20_1_I-1-1.con.xml"/>
        <tllogic-files value="./converted_scenarios/SUMO/DEU_Lohmar-20_1_I-1-1/DEU_Lohmar-20_1_I-1-1.tll.xml"/>
        <type-files value="/home/zen/commonroad-interactive-benchmarks/install/commonroad-map-tool/crmapconverter/sumo_map/templates/DEU.typ.xml"/>
    </input>

    <output>
        <output-file value="./converted_scenarios/SUMO/DEU_Lohmar-20_1_I-1-1/DEU_Lohmar-20_1_I-1-1.net.xml"/>
    </output>

    <processing>
        <geometry.remove.keep-edges.explicit value="true"/>
        <geometry.avoid-overlap value="true"/>
        <offset.disable-normalization value="true"/>
    </processing>

    <junctions>
        <no-turnarounds value="true"/>
        <junctions.internal-link-detail value="20"/>
    </junctions>

    <report>
        <aggregate-warnings value="5"/>
    </report>

    <random_number>
        <seed value="1234"/>
    </random_number>

</configuration>
--><net xmlns:xsi="http://www.w3.org/2001/XMLSchema-instance" version="1.6" junctionCornerDetail="5" junctionLinkDetail="20" limitTurnSpeed="5.50" xsi:noNamespaceSchemaLocation="http://sumo.dlr.de/xsd/net_file.xsd">

    <location netOffset="0.00,0.00" convBoundary="-638.80,-118.78,-470.91,1.37" origBoundary="-638.80,-118.78,-470.91,1.37" projParameter="!"/>

    <type id="highway.bridleway" priority="1" speed="2.78" allow="pedestrian" oneway="1" width="2.00"/>
    <type id="highway.bus_guideway" priority="1" speed="27.78" allow="bus" oneway="1"/>
    <type id="highway.cycleway" priority="1" speed="8.33" allow="bicycle" oneway="0" width="1.00"/>
    <type id="highway.footway" priority="1" speed="2.78" allow="pedestrian" oneway="1" width="2.00"/>
    <type id="highway.ford" priority="1" speed="2.78" allow="army" oneway="0"/>
    <type id="highway.living_street" priority="2" speed="2.78" disallow="tram rail_urban rail rail_electric rail_fast ship" oneway="0"/>
    <type id="highway.motorway" priority="14" speed="39.44" allow="private emergency authority army vip passenger hov taxi bus coach delivery truck trailer motorcycle evehicle custom1 custom2" oneway="1"/>
    <type id="highway.motorway_link" priority="9" speed="22.22" allow="private emergency authority army vip passenger hov taxi bus coach delivery truck trailer motorcycle evehicle custom1 custom2" oneway="1"/>
    <type id="highway.path" priority="1" speed="2.78" allow="pedestrian bicycle" oneway="0" width="2.00"/>
    <type id="highway.pedestrian" priority="1" speed="2.78" allow="pedestrian" oneway="1" width="2.00"/>
    <type id="highway.primary" priority="12" speed="27.78" disallow="pedestrian tram rail_urban rail rail_electric rail_fast ship" oneway="0"/>
    <type id="highway.primary_link" priority="7" speed="22.22" disallow="pedestrian tram rail_urban rail rail_electric rail_fast ship" oneway="0"/>
    <type id="highway.raceway" priority="15" speed="83.33" allow="vip" oneway="0"/>
    <type id="highway.residential" priority="3" speed="13.89" disallow="pedestrian tram rail_urban rail rail_electric rail_fast ship" oneway="0"/>
    <type id="highway.secondary" priority="11" speed="27.78" disallow="pedestrian tram rail_urban rail rail_electric rail_fast ship" oneway="0"/>
    <type id="highway.secondary_link" priority="6" speed="22.22" disallow="pedestrian tram rail_urban rail rail_electric rail_fast ship" oneway="0"/>
    <type id="highway.service" priority="1" speed="5.56" allow="pedestrian delivery bicycle" oneway="0"/>
    <type id="highway.stairs" priority="1" speed="1.39" allow="pedestrian" oneway="1" width="2.00"/>
    <type id="highway.step" priority="1" speed="1.39" allow="pedestrian" oneway="1" width="2.00"/>
    <type id="highway.steps" priority="1" speed="1.39" allow="pedestrian" oneway="1" width="2.00"/>
    <type id="highway.tertiary" priority="10" speed="22.22" disallow="pedestrian tram rail_urban rail rail_electric rail_fast ship" oneway="0"/>
    <type id="highway.tertiary_link" priority="5" speed="22.22" disallow="pedestrian tram rail_urban rail rail_electric rail_fast ship" oneway="0"/>
    <type id="highway.track" priority="1" speed="5.56" allow="pedestrian motorcycle moped bicycle" oneway="0"/>
    <type id="highway.trunk" priority="13" speed="27.78" disallow="pedestrian bicycle tram rail_urban rail rail_electric rail_fast ship" oneway="0"/>
    <type id="highway.trunk_link" priority="8" speed="22.22" disallow="pedestrian bicycle tram rail_urban rail rail_electric rail_fast ship" oneway="0"/>
    <type id="highway.unclassified" priority="4" speed="13.89" disallow="pedestrian tram rail_urban rail rail_electric rail_fast ship" oneway="0"/>
    <type id="highway.unsurfaced" priority="1" speed="8.33" disallow="tram rail_urban rail rail_electric rail_fast ship" oneway="0"/>
    <type id="railway.highspeed" priority="21" speed="69.44" allow="rail_fast" oneway="1"/>
    <type id="railway.light_rail" priority="19" speed="27.78" allow="rail_urban" oneway="1"/>
    <type id="railway.preserved" priority="16" speed="27.78" allow="rail" oneway="1"/>
    <type id="railway.rail" priority="20" speed="44.44" allow="rail" oneway="1"/>
    <type id="railway.subway" priority="18" speed="27.78" allow="rail_urban" oneway="1"/>
    <type id="railway.tram" priority="17" speed="13.89" allow="tram" oneway="1"/>

    <edge id=":22_0" function="internal">
        <lane id=":22_0_0" index="0" disallow="pedestrian tram rail_urban rail rail_electric rail_fast ship" speed="36.11" length="5.10" width="3.44" shape="-635.43,-51.41 -635.41,-51.03 -635.40,-50.68 -635.39,-50.37 -635.39,-50.09 -635.39,-49.83 -635.39,-49.59 -635.40,-49.37 -635.40,-49.15 -635.39,-48.95 -635.39,-48.75 -635.38,-48.54 -635.36,-48.33 -635.34,-48.11 -635.30,-47.88 -635.26,-47.63 -635.21,-47.35 -635.14,-47.05 -635.06,-46.72 -634.97,-46.35"/>
    </edge>
    <edge id=":24_0" function="internal">
        <lane id=":24_0_0" index="0" disallow="pedestrian tram rail_urban rail rail_electric rail_fast ship" speed="8.40" length="15.22" width="3.50" shape="-531.16,-34.42 -531.31,-35.82 -531.64,-37.18 -532.22,-38.46 -532.77,-39.22 -533.44,-39.87 -534.21,-40.39 -535.07,-40.77 -536.43,-41.13 -537.83,-41.26 -542.28,-41.25"/>
    </edge>
    <edge id=":24_1" function="internal">
        <lane id=":24_1_0" index="0" disallow="pedestrian tram rail_urban rail rail_electric rail_fast ship" speed="36.11" length="15.62" width="3.45" shape="-531.16,-34.42 -531.22,-50.04"/>
    </edge>
    <edge id=":24_2" function="internal">
        <lane id=":24_2_0" index="0" disallow="pedestrian tram rail_urban rail rail_electric rail_fast ship" speed="14.02" length="23.77" width="3.50" shape="-531.16,-34.42 -531.14,-37.32 -530.82,-40.20 -530.15,-43.02 -529.35,-45.19 -528.30,-47.25 -521.58,-55.25"/>
    </edge>
    <edge id=":24_3" function="internal">
        <lane id=":24_3_0" index="0" disallow="pedestrian tram rail_urban rail rail_electric rail_fast ship" speed="13.07" length="20.47" width="3.50" shape="-519.42,-52.51 -525.29,-45.47 -526.16,-43.74 -526.83,-41.93 -527.39,-39.53 -527.65,-37.07 -527.67,-34.57"/>
    </edge>
    <edge id=":24_4" function="internal">
        <lane id=":24_4_0" index="0" disallow="pedestrian tram rail_urban rail rail_electric rail_fast ship" speed="19.25" length="27.03" width="3.50" shape="-519.42,-52.51 -525.37,-45.75 -526.69,-44.59 -528.14,-43.61 -530.26,-42.61 -532.49,-41.91 -535.37,-41.43 -542.28,-41.25"/>
    </edge>
    <edge id=":24_5" function="internal">
        <lane id=":24_5_0" index="0" disallow="pedestrian tram rail_urban rail rail_electric rail_fast ship" speed="36.11" length="20.20" width="3.50" shape="-527.35,-54.75 -527.92,-44.03 -527.67,-34.57"/>
    </edge>
    <edge id=":24_6" function="internal">
        <lane id=":24_6_0" index="0" disallow="pedestrian tram rail_urban rail rail_electric rail_fast ship" speed="10.77" length="25.23" width="3.50" shape="-527.35,-54.75 -527.97,-45.39 -528.18,-44.77 -528.51,-44.20 -528.93,-43.70 -529.42,-43.26 -529.96,-42.89 -530.53,-42.57 -531.14,-42.31 -531.76,-42.08 -532.39,-41.90 -533.03,-41.74 -533.68,-41.62 -534.34,-41.52 -534.99,-41.44 -535.65,-41.38 -536.31,-41.33 -536.97,-41.30 -537.63,-41.28 -542.28,-41.25"/>
    </edge>
    <edge id=":24_7" function="internal">
        <lane id=":24_7_0" index="0" disallow="pedestrian tram rail_urban rail rail_electric rail_fast ship" speed="14.64" length="7.33" width="3.46" shape="-542.30,-44.75 -541.75,-44.75 -541.26,-44.75 -540.82,-44.75 -540.41,-44.75 -540.03,-44.75 -539.69,-44.75 -539.37,-44.77 -539.06,-44.79 -538.77,-44.82 -538.48,-44.86 -538.19,-44.92 -537.89,-44.99 -537.59,-45.08 -537.27,-45.19 -536.92,-45.33 -536.55,-45.48 -536.15,-45.66 -535.71,-45.87 -535.22,-46.11"/>
    </edge>
    <edge id=":24_8" function="internal">
        <lane id=":24_8_0" index="0" disallow="pedestrian tram rail_urban rail rail_electric rail_fast ship" speed="18.48" length="24.71" width="3.50" shape="-542.30,-44.75 -535.86,-44.89 -533.47,-45.28 -531.68,-45.81 -530.01,-46.58 -528.90,-47.31 -527.89,-48.18 -521.58,-55.25"/>
    </edge>
    <edge id=":24_9" function="internal">
        <lane id=":24_9_0" index="0" disallow="pedestrian tram rail_urban rail rail_electric rail_fast ship" speed="9.70" length="20.65" width="3.50" shape="-542.30,-44.75 -537.61,-44.75 -535.67,-44.56 -533.70,-44.05 -532.38,-43.45 -531.16,-42.63 -530.09,-41.61 -529.22,-40.40 -528.36,-38.50 -527.87,-36.53 -527.67,-34.57"/>
    </edge>
    <edge id=":26_0" function="internal">
        <lane id=":26_0_0" index="0" disallow="pedestrian tram rail_urban rail rail_electric rail_fast ship" speed="36.11" length="3.00" width="3.42" shape="-628.97,-99.62 -629.04,-101.12 -629.12,-102.62"/>
    </edge>
    <edge id=":27_0" function="internal">
        <lane id=":27_0_0" index="0" disallow="pedestrian tram rail_urban rail rail_electric rail_fast ship" speed="7.83" length="12.99" width="3.50" shape="-619.60,-40.94 -621.31,-41.10 -622.40,-41.44 -623.40,-41.98 -624.27,-42.72 -624.97,-43.62 -625.72,-45.16 -626.17,-46.81 -626.50,-50.08"/>
    </edge>
    <edge id=":27_1" function="internal">
        <lane id=":27_1_0" index="0" disallow="pedestrian tram rail_urban rail rail_electric rail_fast ship" speed="6.63" length="11.02" width="3.50" shape="-631.96,-42.71 -629.65,-42.79 -628.55,-43.21 -627.66,-43.97 -627.04,-44.97 -626.68,-46.09 -626.46,-47.85 -626.50,-50.08"/>
    </edge>
    <edge id=":27_2" function="internal">
        <lane id=":27_2_0" index="0" disallow="pedestrian tram rail_urban rail rail_electric rail_fast ship" speed="36.11" length="12.51" width="3.50" shape="-631.96,-42.71 -628.76,-42.81 -625.23,-43.55 -621.69,-44.28 -619.61,-44.44"/>
    </edge>

    <edge id="106" from="24" to="7" priority="3" type="highway.residential" spreadType="center" length="35.79" shape="-528.90,-42.67 -526.17,1.19">
        <lane id="106_0" index="0" disallow="pedestrian tram rail_urban rail rail_electric rail_fast ship" speed="36.11" length="35.79" width="3.50" customShape="1" shape="-527.67,-34.57 -526.92,-16.69 -526.17,1.19"/>
    </edge>
    <edge id="107" from="19" to="24" priority="3" type="highway.residential" spreadType="center" length="35.82" shape="-529.67,1.37 -532.39,-42.45">
        <lane id="107_0" index="0" disallow="pedestrian tram rail_urban rail rail_electric rail_fast ship" speed="36.11" length="35.82" width="3.50" customShape="1" shape="-529.67,1.37 -530.42,-16.54 -531.16,-34.42"/>
    </edge>
    <edge id="109" from="11" to="24" priority="3" type="highway.residential" spreadType="center" length="49.58" shape="-470.91,-56.83 -530.24,-40.79">
        <lane id="109_0" index="0" disallow="pedestrian tram rail_urban rail rail_electric rail_fast ship" speed="36.11" length="49.58" width="3.50" customShape="1" shape="-470.91,-56.83 -471.94,-56.80 -478.15,-56.84 -492.90,-57.74 -498.90,-57.87 -503.35,-57.68 -507.24,-57.19 -510.58,-56.49 -513.82,-55.49 -516.94,-54.18 -518.46,-53.27 -519.42,-52.51"/>
    </edge>
    <edge id="110" from="24" to="28" priority="3" type="highway.residential" spreadType="center" length="51.79" shape="-531.15,-44.16 -471.03,-60.33">
        <lane id="110_0" index="0" disallow="pedestrian tram rail_urban rail rail_electric rail_fast ship" speed="36.11" length="51.79" width="3.50" customShape="1" shape="-521.58,-55.25 -520.42,-56.17 -518.49,-57.32 -515.00,-58.78 -511.44,-59.88 -507.81,-60.64 -503.63,-61.16 -498.93,-61.37 -492.74,-61.23 -478.03,-60.34 -472.01,-60.30 -471.03,-60.33"/>
    </edge>
    <edge id="1276" from="24" to="25" priority="3" type="highway.residential" spreadType="center" length="0.20">
        <lane id="1276_0" index="0" disallow="pedestrian tram rail_urban rail rail_electric rail_fast ship" speed="36.11" length="0.20" width="3.46" customShape="1" shape="-535.22,-46.11 -535.04,-46.20"/>
    </edge>
    <edge id="185" from="29" to="24" priority="3" type="highway.residential" spreadType="center" length="0.20">
        <lane id="185_0" index="0" disallow="pedestrian tram rail_urban rail rail_electric rail_fast ship" speed="36.11" length="0.20" width="3.16" customShape="1" shape="-527.34,-54.95 -527.35,-54.75"/>
    </edge>
    <edge id="417" from="24" to="27" priority="3" type="highway.residential" spreadType="center" length="77.33" shape="-530.68,-40.74 -624.19,-42.59">
        <lane id="417_0" index="0" disallow="pedestrian tram rail_urban rail rail_electric rail_fast ship" speed="36.11" length="77.33" width="3.50" customShape="1" shape="-542.28,-41.25 -578.95,-41.11 -619.61,-40.94"/>
    </edge>
    <edge id="418" from="27" to="24" priority="3" type="highway.residential" spreadType="center" length="77.31" shape="-624.12,-46.09 -530.61,-44.24">
        <lane id="418_0" index="0" disallow="pedestrian tram rail_urban rail rail_electric rail_fast ship" speed="36.11" length="77.31" width="3.50" customShape="1" shape="-619.61,-44.44 -578.96,-44.61 -542.30,-44.75"/>
    </edge>
    <edge id="420" from="27" to="26" priority="3" type="highway.residential" spreadType="center" length="49.60">
        <lane id="420_0" index="0" disallow="pedestrian tram rail_urban rail rail_electric rail_fast ship" speed="36.11" length="49.60" width="3.50" customShape="1" shape="-626.50,-50.08 -627.62,-72.48 -628.97,-99.62"/>
    </edge>
    <edge id="422" from="26" to="14" priority="3" type="highway.residential" spreadType="center" length="9.47">
        <lane id="422_0" index="0" disallow="pedestrian tram rail_urban rail rail_electric rail_fast ship" speed="36.11" length="9.47" width="3.42" customShape="1" shape="-629.12,-102.62 -629.32,-106.67 -629.33,-106.78 -629.33,-106.90 -629.34,-107.01 -629.60,-112.08"/>
    </edge>
    <edge id="428" from="23" to="22" priority="3" type="highway.residential" spreadType="center" length="67.45">
        <lane id="428_0" index="0" disallow="pedestrian tram rail_urban rail rail_electric rail_fast ship" speed="36.11" length="67.45" width="3.50" customShape="1" shape="-638.80,-118.78 -635.43,-51.41"/>
    </edge>
    <edge id="430" from="22" to="27" priority="3" type="highway.residential" spreadType="center" length="5.01">
        <lane id="430_0" index="0" disallow="pedestrian tram rail_urban rail rail_electric rail_fast ship" speed="36.11" length="5.01" width="3.44" customShape="1" shape="-634.97,-46.35 -634.85,-45.89 -634.71,-45.48 -634.56,-45.08 -634.38,-44.69 -634.17,-44.32 -633.93,-43.97 -633.65,-43.64 -633.34,-43.35 -633.00,-43.10 -632.62,-42.90 -632.21,-42.76 -631.96,-42.71"/>
    </edge>
    <edge id="931" from="24" to="25" priority="3" type="highway.residential" spreadType="center" length="0.20">
        <lane id="931_0" index="0" disallow="pedestrian tram rail_urban rail rail_electric rail_fast ship" speed="36.11" length="0.20" width="3.45" customShape="1" shape="-531.22,-50.04 -531.21,-50.24"/>
    </edge>

    <junction id="11" type="dead_end" x="-470.91" y="-56.83" incLanes="" intLanes="" shape="-470.97,-58.58 -470.85,-55.09" rightOfWay="edgePriority"/>
    <junction id="14" type="dead_end" x="-629.60" y="-112.08" incLanes="422_0" intLanes="" shape="-631.31,-112.00 -627.89,-112.17" rightOfWay="edgePriority"/>
    <junction id="19" type="dead_end" x="-529.67" y="1.37" incLanes="" intLanes="" shape="-527.92,1.30 -531.42,1.45" rightOfWay="edgePriority"/>
    <junction id="22" type="priority" x="-635.30" y="-48.87" incLanes="428_0" intLanes=":22_0_0" shape="-636.70,-46.23 -633.22,-46.47 -633.64,-48.22 -633.69,-48.89 -633.67,-49.57 -633.65,-50.39 -633.68,-51.49 -637.17,-51.32 -637.10,-48.75 -637.04,-48.09 -636.92,-47.29" rightOfWay="edgePriority">
        <request index="0" response="0" foes="0" cont="0"/>
    </junction>
    <junction id="23" type="dead_end" x="-638.80" y="-118.78" incLanes="" intLanes="" shape="-640.55,-118.69 -637.06,-118.87" rightOfWay="edgePriority"/>
    <junction id="24" type="priority" x="-530.64" y="-42.49" incLanes="107_0 109_0 185_0 418_0" intLanes=":24_0_0 :24_1_0 :24_2_0 :24_3_0 :24_4_0 :24_5_0 :24_6_0 :24_7_0 :24_8_0 :24_9_0" shape="-532.91,-34.35 -525.92,-34.64 -525.82,-37.91 -525.26,-40.97 -524.23,-43.83 -522.73,-46.47 -520.77,-48.91 -518.33,-51.14 -522.67,-56.62 -525.56,-58.13 -532.66,-58.38 -533.18,-45.18 -534.71,-48.29 -537.37,-47.06 -538.36,-46.76 -539.38,-46.59 -540.63,-46.52 -542.30,-46.50 -542.27,-39.50 -539.47,-39.37 -537.17,-38.95 -535.36,-38.23 -534.05,-37.23 -533.23,-35.93">
        <request index="0" response="0000010000" foes="0001010000" cont="0"/>
        <request index="1" response="1100010000" foes="1101010000" cont="0"/>
        <request index="2" response="1101110000" foes="1101110000" cont="0"/>
        <request index="3" response="0000000000" foes="1000100000" cont="0"/>
        <request index="4" response="0000000000" foes="1001100111" cont="0"/>
        <request index="5" response="1100011000" foes="1100011100" cont="0"/>
        <request index="6" response="1100010011" foes="1100010111" cont="0"/>
        <request index="7" response="0000000000" foes="0000000000" cont="0"/>
        <request index="8" response="0000000000" foes="0001100110" cont="0"/>
        <request index="9" response="0000011000" foes="0001111110" cont="0"/>
    </junction>
    <junction id="25" type="dead_end" x="-531.35" y="-46.27" incLanes="931_0 1276_0" intLanes="" shape="-533.09,-42.01 -529.64,-41.89 -530.52,-44.59 -531.55,-45.51 -532.98,-46.14 -534.81,-46.48 -537.03,-46.53 -534.61,-43.25 -533.78,-43.20 -533.49,-43.03 -533.27,-42.78 -533.14,-42.44"/>
    <junction id="26" type="priority" x="-629.04" y="-101.12" incLanes="420_0" intLanes=":26_0_0" shape="-630.71,-99.53 -627.22,-99.71 -627.41,-102.70 -630.83,-102.53">
        <request index="0" response="0" foes="0" cont="0"/>
    </junction>
    <junction id="27" type="priority" x="-624.13" y="-44.34" incLanes="417_0 430_0" intLanes=":27_0_0 :27_1_0 :27_2_0" shape="-619.59,-39.19 -619.62,-46.19 -622.38,-46.62 -623.37,-47.17 -624.10,-47.95 -624.56,-48.94 -624.76,-50.17 -628.25,-49.99 -628.24,-47.71 -628.49,-45.97 -628.98,-44.78 -629.72,-44.14 -630.70,-44.03 -631.95,-44.49 -631.97,-40.97 -629.35,-40.44 -627.42,-39.99 -625.82,-39.64 -624.21,-39.39 -622.25,-39.24">
        <request index="0" response="110" foes="110" cont="0"/>
        <request index="1" response="000" foes="001" cont="0"/>
        <request index="2" response="000" foes="001" cont="0"/>
    </junction>
    <junction id="28" type="dead_end" x="-471.03" y="-60.33" incLanes="110_0" intLanes="" shape="-471.10,-62.08 -470.97,-58.58"/>
    <junction id="29" type="dead_end" x="-527.55" y="-51.51" incLanes="" intLanes="" shape="-529.13,-51.61 -525.97,-51.42"/>
    <junction id="7" type="dead_end" x="-526.17" y="1.19" incLanes="106_0" intLanes="" shape="-524.43,1.12 -527.92,1.27" rightOfWay="edgePriority"/>

    <connection from="107" to="417" fromLane="0" toLane="0" contPos="-4.00" shape="-531.16,-34.42 -531.31,-35.82 -531.64,-37.18 -532.22,-38.46 -532.77,-39.22 -533.44,-39.87 -534.21,-40.39 -535.07,-40.77 -536.43,-41.13 -537.83,-41.26 -538.30,-41.27" via=":24_0_0" dir="r" state="m"/>
    <connection from="107" to="931" fromLane="0" toLane="0" contPos="-4.00" via=":24_1_0" dir="s" state="m"/>
    <connection from="107" to="110" fromLane="0" toLane="0" contPos="-4.00" shape="-531.16,-34.42 -531.14,-37.32 -530.82,-40.20 -530.15,-43.02 -529.35,-45.19 -528.30,-47.25 -526.98,-49.23" via=":24_2_0" dir="l" state="m"/>
    <connection from="109" to="106" fromLane="0" toLane="0" contPos="-4.00" shape="-524.20,-47.11 -525.29,-45.47 -526.16,-43.74 -526.83,-41.93 -527.39,-39.53 -527.65,-37.07 -527.67,-34.57" via=":24_3_0" dir="r" state="M"/>
    <connection from="109" to="417" fromLane="0" toLane="0" contPos="-4.00" shape="-524.20,-47.11 -525.37,-45.75 -526.69,-44.59 -528.14,-43.61 -530.26,-42.61 -532.49,-41.91 -535.37,-41.43 -538.30,-41.27" via=":24_4_0" dir="s" state="M"/>
    <connection from="185" to="106" fromLane="0" toLane="0" contPos="-4.00" shape="-527.88,-46.05 -527.92,-44.03 -527.67,-34.57" via=":24_5_0" dir="s" state="m"/>
    <connection from="185" to="417" fromLane="0" toLane="0" contPos="-4.00" shape="-527.88,-46.05 -527.97,-45.39 -528.18,-44.77 -528.51,-44.20 -528.93,-43.70 -529.42,-43.26 -529.96,-42.89 -530.53,-42.57 -531.14,-42.31 -531.76,-42.08 -532.39,-41.90 -533.03,-41.74 -533.68,-41.62 -534.34,-41.52 -534.99,-41.44 -535.65,-41.38 -536.31,-41.33 -536.97,-41.30 -537.63,-41.28 -538.30,-41.27" via=":24_6_0" dir="L" state="m"/>
    <connection from="417" to="420" fromLane="0" toLane="0" contPos="-4.00" shape="-619.61,-40.94 -621.31,-41.10 -622.40,-41.44 -623.40,-41.98 -624.27,-42.72 -624.97,-43.62 -625.72,-45.16 -626.17,-46.81 -626.46,-49.29" via=":27_0_0" dir="l" state="m"/>
    <connection from="418" to="1276" fromLane="0" toLane="0" contPos="-4.00" via=":24_7_0" dir="r" state="M"/>
    <connection from="418" to="110" fromLane="0" toLane="0" contPos="-4.00" shape="-538.33,-44.77 -535.86,-44.89 -533.47,-45.28 -531.68,-45.81 -530.01,-46.58 -528.90,-47.31 -527.89,-48.18 -526.98,-49.23" via=":24_8_0" dir="s" state="M"/>
    <connection from="418" to="106" fromLane="0" toLane="0" contPos="-4.00" shape="-538.33,-44.77 -537.61,-44.75 -535.67,-44.56 -533.70,-44.05 -532.38,-43.45 -531.16,-42.63 -530.09,-41.61 -529.22,-40.40 -528.36,-38.50 -527.87,-36.53 -527.67,-34.57" via=":24_9_0" dir="l" state="m"/>
    <connection from="420" to="422" fromLane="0" toLane="0" contPos="-4.00" shape="-628.77,-95.67 -629.04,-101.12 -629.32,-106.56" via=":26_0_0" dir="s" state="M"/>
    <connection from="428" to="430" fromLane="0" toLane="0" contPos="-4.00" via=":22_0_0" dir="r" state="M"/>
    <connection from="430" to="420" fromLane="0" toLane="0" contPos="-4.00" shape="-630.82,-42.67 -629.65,-42.79 -628.55,-43.21 -627.66,-43.97 -627.04,-44.97 -626.68,-46.09 -626.46,-47.85 -626.46,-49.29" via=":27_1_0" dir="r" state="M"/>
    <connection from="430" to="418" fromLane="0" toLane="0" contPos="-4.00" shape="-630.82,-42.67 -628.76,-42.81 -625.23,-43.55 -621.69,-44.28 -619.61,-44.44" via=":27_2_0" dir="s" state="M"/>

    <connection from=":22_0" to="430" fromLane="0" toLane="0" dir="r" state="M"/>
    <connection from=":24_0" to="417" fromLane="0" toLane="0" dir="r" state="M"/>
    <connection from=":24_1" to="931" fromLane="0" toLane="0" dir="s" state="M"/>
    <connection from=":24_2" to="110" fromLane="0" toLane="0" dir="l" state="M"/>
    <connection from=":24_3" to="106" fromLane="0" toLane="0" dir="r" state="M"/>
    <connection from=":24_4" to="417" fromLane="0" toLane="0" dir="s" state="M"/>
    <connection from=":24_5" to="106" fromLane="0" toLane="0" dir="s" state="M"/>
    <connection from=":24_6" to="417" fromLane="0" toLane="0" dir="L" state="M"/>
    <connection from=":24_7" to="1276" fromLane="0" toLane="0" dir="r" state="M"/>
    <connection from=":24_8" to="110" fromLane="0" toLane="0" dir="s" state="M"/>
    <connection from=":24_9" to="106" fromLane="0" toLane="0" dir="l" state="M"/>
    <connection from=":26_0" to="422" fromLane="0" toLane="0" dir="s" state="M"/>
    <connection from=":27_0" to="420" fromLane="0" toLane="0" dir="l" state="M"/>
    <connection from=":27_1" to="420" fromLane="0" toLane="0" dir="r" state="M"/>
    <connection from=":27_2" to="418" fromLane="0" toLane="0" dir="s" state="M"/>

</net>