<!-- generated on 2020-12-18 15:57:49.147964 by ipykernel_launcher.py v1_2_0+5214-53edc58fcd
-->
<edges>
	<edge from="1" function="normal" id="3431" length="7.746632106922337" numLanes="5" priority="1" speed="36.11111111111111" spreadType="center" to="2">
		<lane allow="moped bicycle pedestrian custom1 trailer evehicle rail_urban ship private truck vip custom2 authority delivery rail_electric taxi tram army hov coach motorcycle passenger bus rail emergency" index="0" length="7.746632106922337" shape="13.06555,46.784 9.52345,39.7735" speed="36.11111111111111" width="2.841755522559951"/>
		<lane allow="moped bicycle pedestrian custom1 trailer evehicle rail_urban ship private truck vip custom2 authority delivery rail_electric taxi tram army hov coach motorcycle passenger bus rail emergency" index="1" length="7.746632106922337" shape="15.6928,45.4353 12.20995,38.427400000000006" speed="36.11111111111111" width="3.064659380746906"/>
		<lane allow="moped bicycle pedestrian custom1 trailer evehicle rail_urban ship private truck vip custom2 authority delivery rail_electric taxi tram army hov coach motorcycle passenger bus rail emergency" index="2" length="7.746632106922337" shape="18.40385,44.043549999999996 14.956199999999999,37.0689" speed="36.11111111111111" width="3.0301778330652485"/>
		<lane allow="moped bicycle pedestrian custom1 trailer evehicle rail_urban ship private truck vip custom2 authority delivery rail_electric taxi tram army hov coach motorcycle passenger bus rail emergency" index="3" length="7.746632106922337" shape="21.1221,42.6481 17.6907,35.7029" speed="36.11111111111111" width="3.0528378404363354"/>
		<lane allow="moped bicycle pedestrian custom1 trailer evehicle rail_urban ship private truck vip custom2 authority delivery rail_electric taxi tram army hov coach motorcycle passenger bus rail emergency" index="4" length="7.746632106922337" shape="23.8474,41.24905 20.416449999999998,34.2601" speed="36.11111111111111" width="3.046009725854468"/>
	</edge>
	<edge from="2" function="normal" id="3438" length="8.438893355322131" numLanes="6" priority="1" speed="36.11111111111111" spreadType="center" to="3">
		<lane allow="moped bicycle pedestrian custom1 trailer evehicle rail_urban ship private truck vip custom2 authority delivery rail_electric taxi tram army hov coach motorcycle passenger bus rail emergency" index="0" length="8.438893355322131" shape="9.52345,39.7735 2.8486000000000002,33.49675" speed="36.11111111111111" width="2.94351281464851"/>
		<lane allow="moped bicycle pedestrian custom1 trailer evehicle rail_urban ship private truck vip custom2 authority delivery rail_electric taxi tram army hov coach motorcycle passenger bus rail emergency" index="1" length="8.438893355322131" shape="9.52345,39.7735 5.6899,32.16385" speed="36.11111111111111" width="2.94351281464851"/>
		<lane allow="moped bicycle pedestrian custom1 trailer evehicle rail_urban ship private truck vip custom2 authority delivery rail_electric taxi tram army hov coach motorcycle passenger bus rail emergency" index="2" length="8.438893355322131" shape="12.20995,38.427400000000006 8.43845,30.8323" speed="36.11111111111111" width="3.054615309658486"/>
		<lane allow="moped bicycle pedestrian custom1 trailer evehicle rail_urban ship private truck vip custom2 authority delivery rail_electric taxi tram army hov coach motorcycle passenger bus rail emergency" index="3" length="8.438893355322131" shape="14.956199999999999,37.0689 11.1695,29.489449999999998" speed="36.11111111111111" width="3.032458014548592"/>
		<lane allow="moped bicycle pedestrian custom1 trailer evehicle rail_urban ship private truck vip custom2 authority delivery rail_electric taxi tram army hov coach motorcycle passenger bus rail emergency" index="4" length="8.438893355322131" shape="17.6907,35.7029 13.8884,28.108249999999998" speed="36.11111111111111" width="3.0528378404363354"/>
		<lane allow="moped bicycle pedestrian custom1 trailer evehicle rail_urban ship private truck vip custom2 authority delivery rail_electric taxi tram army hov coach motorcycle passenger bus rail emergency" index="5" length="8.438893355322131" shape="20.416449999999998,34.2601 16.676299999999998,26.6953" speed="36.11111111111111" width="3.1152791608457817"/>
	</edge>
	<edge from="3" function="normal" id="3450" length="24.49487124148037" numLanes="6" priority="1" speed="36.11111111111111" spreadType="center" to="4">
		<lane allow="moped bicycle pedestrian custom1 trailer evehicle rail_urban ship private truck vip custom2 authority delivery rail_electric taxi tram army hov coach motorcycle passenger bus rail emergency" index="0" length="24.49487124148037" shape="2.8486000000000002,33.49675 -0.31610000000000005,27.262700000000002 -4.1044,19.57555 -8.190100000000001,11.630949999999999" speed="36.11111111111111" width="3.2241062653082633"/>
		<lane allow="moped bicycle pedestrian custom1 trailer evehicle rail_urban ship private truck vip custom2 authority delivery rail_electric taxi tram army hov coach motorcycle passenger bus rail emergency" index="1" length="24.49487124148037" shape="5.6899,32.16385 2.6824,26.11225 -1.1405500000000002,18.164 -5.244400000000001,10.027249999999999" speed="36.11111111111111" width="2.866561921535972"/>
		<lane allow="moped bicycle pedestrian custom1 trailer evehicle rail_urban ship private truck vip custom2 authority delivery rail_electric taxi tram army hov coach motorcycle passenger bus rail emergency" index="2" length="24.49487124148037" shape="8.43845,30.8323 5.41545,24.78085 1.56165,16.83305 -2.6019,8.7087" speed="36.11111111111111" width="3.0042210737560575"/>
		<lane allow="moped bicycle pedestrian custom1 trailer evehicle rail_urban ship private truck vip custom2 authority delivery rail_electric taxi tram army hov coach motorcycle passenger bus rail emergency" index="3" length="24.49487124148037" shape="11.1695,29.489449999999998 8.0831,23.3312 4.1984,15.3838 0.18274999999999997,7.3343" speed="36.11111111111111" width="3.0189875720181423"/>
		<lane allow="moped bicycle pedestrian custom1 trailer evehicle rail_urban ship private truck vip custom2 authority delivery rail_electric taxi tram army hov coach motorcycle passenger bus rail emergency" index="4" length="24.49487124148037" shape="13.8884,28.108249999999998 10.76995,21.87355 6.885249999999999,13.92615 2.94585,5.941000000000001" speed="36.11111111111111" width="3.018395509206837"/>
		<lane allow="moped bicycle pedestrian custom1 trailer evehicle rail_urban ship private truck vip custom2 authority delivery rail_electric taxi tram army hov coach motorcycle passenger bus rail emergency" index="5" length="24.49487124148037" shape="16.676299999999998,26.6953 13.46385,20.36965 9.579149999999998,12.42225 5.64165,4.56785" speed="36.11111111111111" width="3.0323687935341903"/>
	</edge>
	<edge from="4" function="normal" id="3664" length="45.62159337177896" numLanes="2" priority="1" speed="36.11111111111111" spreadType="center" to="5">
		<lane allow="moped bicycle pedestrian custom1 trailer evehicle rail_urban ship private vip custom2 authority delivery rail_electric taxi tram army hov coach motorcycle passenger rail emergency" index="0" length="45.62159337177896" shape="2.94585,5.941000000000001 -0.8124999999999999,-1.4404 -2.9479,-5.84835 -4.0128,-8.38025 -4.48625,-10.4281 -4.614050000000001,-12.7935 -4.1726,-15.5802 -3.4375,-18.1464 -2.3710500000000003,-20.08515 -0.9582,-22.23155 2.16205,-25.2065 8.20665,-28.6892 17.2194,-33.4039" speed="36.11111111111111" width="2.934935747167218"/>
		<lane allow="moped bicycle pedestrian custom1 trailer evehicle rail_urban ship private vip custom2 authority delivery rail_electric taxi tram army hov coach motorcycle passenger rail emergency" index="1" length="45.62159337177896" shape="5.64165,4.56785 2.29025,-2.2083500000000003 0.68235,-6.25375 0.018550000000000066,-8.645 -0.25780000000000003,-10.42635 -0.42580000000000007,-12.459150000000001 -0.1965500000000001,-14.5669 0.4516999999999999,-16.332749999999997 1.41805,-17.913800000000002 2.74405,-19.533050000000003 5.2169,-22.10145 10.4815,-25.8598 18.764249999999997,-30.3123" speed="36.11111111111111" width="3.0323687935341903"/>
	</edge>
	<edge from="5" function="normal" id="3495" length="15.184501575044731" numLanes="3" priority="1" speed="36.11111111111111" spreadType="center" to="6">
		<lane allow="moped bicycle pedestrian custom1 trailer evehicle rail_urban ship private truck vip custom2 authority delivery rail_electric taxi tram army hov coach motorcycle passenger bus rail emergency" index="0" length="15.184501575044731" shape="15.59635,-36.732 24.32365,-41.02705 29.231450000000002,-43.442350000000005" speed="36.11111111111111" width="3.876585964479573"/>
		<lane allow="moped bicycle pedestrian custom1 trailer evehicle rail_urban ship private truck vip custom2 authority delivery rail_electric taxi tram army hov coach motorcycle passenger bus rail emergency" index="1" length="15.184501575044731" shape="17.2194,-33.4039 25.94655,-37.69745 30.86515,-40.11725" speed="36.11111111111111" width="3.511789538113009"/>
		<lane allow="moped bicycle pedestrian custom1 trailer evehicle rail_urban ship private truck vip custom2 authority delivery rail_electric taxi tram army hov coach motorcycle passenger bus rail emergency" index="2" length="15.184501575044731" shape="18.764249999999997,-30.3123 27.44305,-34.5809 32.389849999999996,-37.013949999999994" speed="36.11111111111111" width="3.3823138145358387"/>
	</edge>
	<edge from="4" function="normal" id="3610" length="13.553882434287969" numLanes="3" priority="1" speed="36.11111111111111" spreadType="center" to="7">
		<lane allow="moped bicycle pedestrian custom1 trailer evehicle rail_urban ship private truck vip custom2 authority delivery rail_electric taxi tram army hov coach motorcycle passenger bus rail emergency" index="0" length="13.553882434287969" shape="-5.244400000000001,10.027249999999999 -11.2811,-2.14865" speed="36.11111111111111" width="2.866561921535972"/>
		<lane allow="moped bicycle pedestrian custom1 trailer evehicle rail_urban ship private truck vip custom2 authority delivery rail_electric taxi tram army hov coach motorcycle passenger bus rail emergency" index="1" length="13.553882434287969" shape="-2.6019,8.7087 -8.552150000000001,-3.4825" speed="36.11111111111111" width="3.01738360338887"/>
		<lane allow="moped bicycle pedestrian custom1 trailer evehicle rail_urban ship private truck vip custom2 authority delivery rail_electric taxi tram army hov coach motorcycle passenger bus rail emergency" index="2" length="13.553882434287969" shape="0.18274999999999997,7.3343 -5.79605,-4.82965" speed="36.11111111111111" width="3.1180545505170367"/>
	</edge>
	<edge from="7" function="normal" id="3646" length="16.509632755735122" numLanes="3" priority="1" speed="36.11111111111111" spreadType="center" to="8">
		<lane allow="moped bicycle pedestrian custom1 trailer evehicle rail_urban ship private truck vip custom2 authority delivery rail_electric taxi tram army hov coach motorcycle passenger bus rail emergency" index="0" length="16.509632755735122" shape="-11.2811,-2.14865 -12.7151,-5.04105 -14.34835,-8.3356 -15.75345,-11.1695 -17.138849999999998,-13.963899999999999 -18.61445,-16.9402" speed="36.11111111111111" width="3.0575892938718896"/>
		<lane allow="moped bicycle pedestrian custom1 trailer evehicle rail_urban ship private truck vip custom2 authority delivery rail_electric taxi tram army hov coach motorcycle passenger bus rail emergency" index="1" length="16.509632755735122" shape="-8.552150000000001,-3.4825 -9.9814,-6.4107 -11.59565,-9.7182 -12.986699999999999,-12.5663 -14.3666,-15.39175 -15.8354,-18.399" speed="36.11111111111111" width="2.9903827313573115"/>
		<lane allow="moped bicycle pedestrian custom1 trailer evehicle rail_urban ship private truck vip custom2 authority delivery rail_electric taxi tram army hov coach motorcycle passenger bus rail emergency" index="2" length="16.509632755735122" shape="-5.79605,-4.82965 -7.246650000000001,-7.7809 -8.8718,-11.087299999999999 -10.2728,-13.936399999999999 -11.671199999999999,-16.780050000000003 -13.158349999999999,-19.80415" speed="36.11111111111111" width="3.056448910091578"/>
	</edge>
	<edge from="8" function="normal" id="3626" length="12.190574110865327" numLanes="3" priority="1" speed="36.11111111111111" spreadType="center" to="9">
		<lane allow="moped bicycle pedestrian custom1 trailer evehicle rail_urban ship private truck vip custom2 authority delivery rail_electric taxi tram army hov coach motorcycle passenger bus rail emergency" index="0" length="12.190574110865327" shape="-18.61445,-16.9402 -24.02975,-27.86195" speed="36.11111111111111" width="3.2869467488841364"/>
		<lane allow="moped bicycle pedestrian custom1 trailer evehicle rail_urban ship private truck vip custom2 authority delivery rail_electric taxi tram army hov coach motorcycle passenger bus rail emergency" index="1" length="12.190574110865327" shape="-15.8354,-18.399 -21.1861,-29.354599999999998" speed="36.11111111111111" width="2.9693589611227513"/>
		<lane allow="moped bicycle pedestrian custom1 trailer evehicle rail_urban ship private truck vip custom2 authority delivery rail_electric taxi tram army hov coach motorcycle passenger bus rail emergency" index="2" length="12.190574110865327" shape="-13.158349999999999,-19.80415 -18.53805,-30.74455" speed="36.11111111111111" width="3.0119886487169927"/>
	</edge>
	<edge from="9" function="normal" id="3542" length="42.04503365774769" numLanes="3" priority="1" speed="36.11111111111111" spreadType="center" to="10">
		<lane allow="moped bicycle pedestrian custom1 trailer evehicle rail_urban ship private truck vip custom2 authority delivery rail_electric taxi tram army hov coach motorcycle passenger rail emergency" index="0" length="42.04503365774769" shape="-24.02975,-27.86195 -28.191049999999997,-36.40065 -32.244299999999996,-45.330650000000006 -36.01635,-54.04915 -39.641099999999994,-63.293099999999995 -40.95885,-66.50625" speed="36.11111111111111" width="2.8481341330772993"/>
		<lane allow="moped bicycle pedestrian custom1 trailer evehicle rail_urban ship private truck vip custom2 authority delivery rail_electric taxi tram army hov coach motorcycle passenger bus rail emergency" index="1" length="42.04503365774769" shape="-21.1861,-29.354599999999998 -25.429499999999997,-37.909400000000005 -29.51165,-46.692800000000005 -33.2523,-55.381 -36.9063,-64.5013 -38.25235,-67.83985000000001" speed="36.11111111111111" width="2.9693589611227513"/>
		<lane allow="moped bicycle pedestrian custom1 trailer evehicle rail_urban ship private truck vip custom2 authority delivery rail_electric taxi tram army hov coach motorcycle passenger bus rail emergency" index="2" length="42.04503365774769" shape="-18.53805,-30.74455 -22.760849999999998,-39.4245 -26.8112,-48.1468 -30.58275,-56.834599999999995 -34.077600000000004,-65.63395 -35.490300000000005,-69.2008" speed="36.11111111111111" width="2.9622015478356585"/>
	</edge>
	<edge from="4" function="normal" id="3604" length="15.837809304392044" numLanes="1" priority="1" speed="36.11111111111111" spreadType="center" to="11">
		<lane allow="moped bicycle pedestrian custom1 trailer evehicle rail_urban ship private vip custom2 authority delivery rail_electric taxi tram army hov coach motorcycle passenger rail emergency" index="0" length="15.837809304392044" shape="-8.190100000000001,11.630949999999999 -9.23235,10.356850000000001 -10.4911,8.805 -11.879100000000001,7.4087499999999995 -13.7595,6.17345 -15.4607,5.58965 -17.2569,5.3919500000000005 -19.178600000000003,5.61145 -21.4946,6.36365" speed="36.11111111111111" width="3.843390931196045"/>
	</edge>
	<edge from="11" function="normal" id="3487" length="21.42834305383199" numLanes="3" priority="1" speed="36.11111111111111" spreadType="center" to="12">
		<lane allow="moped bicycle pedestrian custom1 trailer evehicle rail_urban ship private truck vip custom2 authority delivery rail_electric taxi tram army hov coach motorcycle passenger bus rail emergency" index="0" length="21.42834305383199" shape="-21.4946,6.36365 -30.7081,10.803049999999999 -39.545,15.621749999999999 -40.541349999999994,16.16695" speed="36.11111111111111" width="4.576431161942677"/>
		<lane allow="moped bicycle pedestrian custom1 trailer evehicle rail_urban ship private truck vip custom2 authority delivery rail_electric taxi tram army hov coach motorcycle passenger bus rail emergency" index="1" length="21.42834305383199" shape="-23.2119,1.9097 -32.60235,6.9517500000000005 -41.2488,12.12175 -42.27575,12.738199999999999" speed="36.11111111111111" width="3.1084813092569825"/>
		<lane allow="moped bicycle pedestrian custom1 trailer evehicle rail_urban ship private truck vip custom2 authority delivery rail_electric taxi tram army hov coach motorcycle passenger bus rail emergency" index="2" length="21.42834305383199" shape="-24.3476,-1.3214000000000001 -34.1293,3.92625 -42.77575,9.096250000000001 -43.805350000000004,9.71435" speed="36.11111111111111" width="3.664585112942529"/>
	</edge>
	<edge from="13" function="normal" id="3479" length="22.651817425696017" numLanes="3" priority="1" speed="36.11111111111111" spreadType="center" to="14">
		<lane allow="moped bicycle pedestrian custom1 trailer evehicle rail_urban ship private truck vip custom2 authority delivery rail_electric taxi tram army hov coach motorcycle passenger bus rail emergency" index="0" length="22.651817425696017" shape="-48.66865,0.10005000000000008 -47.5261,-0.47785 -37.9461,-5.2302 -28.33565,-10.01375" speed="36.11111111111111" width="3.231198096681787"/>
		<lane allow="moped bicycle pedestrian custom1 trailer evehicle rail_urban ship private truck vip custom2 authority delivery rail_electric taxi tram army hov coach motorcycle passenger rail emergency" index="1" length="22.651817425696017" shape="-47.257149999999996,2.8904500000000004 -46.095349999999996,2.30275 -36.51535,-2.4496 -26.90485,-7.23315" speed="36.11111111111111" width="3.022973122606286"/>
		<lane allow="moped bicycle pedestrian custom1 trailer evehicle rail_urban ship private truck vip custom2 authority delivery rail_electric taxi tram army hov coach motorcycle passenger rail emergency" index="2" length="22.651817425696017" shape="-45.8846,5.6038499999999996 -44.689,4.99905 -35.108999999999995,0.24670000000000003 -25.598100000000002,-4.4739" speed="36.11111111111111" width="3.0586164927953945"/>
	</edge>
	<edge from="14" function="normal" id="3672" length="43.429643178518916" numLanes="1" priority="1" speed="36.11111111111111" spreadType="center" to="15">
		<lane allow="moped bicycle pedestrian custom1 trailer evehicle rail_urban ship private vip custom2 authority delivery rail_electric taxi tram army hov coach motorcycle passenger rail emergency" index="0" length="43.429643178518916" shape="-25.598100000000002,-4.4739 -20.4409,-7.01425 -16.8581,-8.49875 -13.01225,-9.8574 -10.23155,-10.8277 -7.7456,-11.32455 -5.51075,-11.536950000000001 -3.17455,-11.41995 -1.53005,-11.28555 -0.42060000000000003,-11.0293 0.51915,-10.4463 1.4384000000000001,-9.0961 2.5941,-7.16775 5.26155,-2.9303 6.8353,0.12144999999999997 8.30705,3.2336" speed="36.11111111111111" width="2.9171821763475796"/>
	</edge>
	<edge from="15" function="normal" id="3456" length="24.71092057982316" numLanes="3" priority="1" speed="36.11111111111111" spreadType="center" to="16">
		<lane allow="moped bicycle pedestrian custom1 trailer evehicle rail_urban ship private truck vip custom2 authority delivery rail_electric taxi tram army hov coach motorcycle passenger bus rail emergency" index="0" length="24.71092057982316" shape="13.8337,0.47389999999999993 17.4295,7.6675 21.28285,15.584600000000002 24.6455,22.692999999999998" speed="36.11111111111111" width="3.0476685974692184"/>
		<lane allow="moped bicycle pedestrian custom1 trailer evehicle rail_urban ship private truck vip custom2 authority delivery rail_electric taxi tram army hov coach motorcycle passenger bus rail emergency" index="1" length="24.71092057982316" shape="11.004850000000001,1.86815 14.86495,9.43505 18.5432,17.00065 21.98205,24.0311" speed="36.11111111111111" width="2.9148241130469597"/>
		<lane allow="moped bicycle pedestrian custom1 trailer evehicle rail_urban ship private truck vip custom2 authority delivery rail_electric taxi tram army hov coach motorcycle passenger bus rail emergency" index="2" length="24.71092057982316" shape="8.30705,3.2336 12.23555,10.9958 16.024,18.698349999999998 19.39555,25.344949999999997" speed="36.11111111111111" width="2.888004380190587"/>
	</edge>
	<edge from="16" function="normal" id="3462" length="8.466645302154804" numLanes="3" priority="1" speed="36.11111111111111" spreadType="center" to="17">
		<lane allow="moped bicycle pedestrian custom1 trailer evehicle rail_urban ship private truck vip custom2 authority delivery rail_electric taxi tram army hov coach motorcycle passenger bus rail emergency" index="0" length="8.466645302154804" shape="24.6455,22.692999999999998 28.5248,30.25575" speed="36.11111111111111" width="3.0476685974692184"/>
		<lane allow="moped bicycle pedestrian custom1 trailer evehicle rail_urban ship private truck vip custom2 authority delivery rail_electric taxi tram army hov coach motorcycle passenger bus rail emergency" index="1" length="8.466645302154804" shape="21.98205,24.0311 25.800150000000002,31.6408" speed="36.11111111111111" width="2.9148241130469597"/>
		<lane allow="moped bicycle pedestrian custom1 trailer evehicle rail_urban ship private truck vip custom2 authority delivery rail_electric taxi tram army hov coach motorcycle passenger bus rail emergency" index="2" length="8.466645302154804" shape="19.39555,25.344949999999997 23.1362,32.94045" speed="36.11111111111111" width="2.888004380190587"/>
	</edge>
	<edge from="17" function="normal" id="3470" length="7.644506528383637" numLanes="3" priority="1" speed="36.11111111111111" spreadType="center" to="18">
		<lane allow="moped bicycle pedestrian custom1 trailer evehicle rail_urban ship private truck vip custom2 authority delivery rail_electric taxi tram army hov coach motorcycle passenger bus rail emergency" index="0" length="7.644506528383637" shape="28.5248,30.25575 31.916200000000003,37.1068" speed="36.11111111111111" width="3.054999162029347"/>
		<lane allow="moped bicycle pedestrian custom1 trailer evehicle rail_urban ship private truck vip custom2 authority delivery rail_electric taxi tram army hov coach motorcycle passenger bus rail emergency" index="1" length="7.644506528383637" shape="25.800150000000002,31.6408 29.21565,38.49315" speed="36.11111111111111" width="2.998011102381044"/>
		<lane allow="moped bicycle pedestrian custom1 trailer evehicle rail_urban ship private truck vip custom2 authority delivery rail_electric taxi tram army hov coach motorcycle passenger bus rail emergency" index="2" length="7.644506528383637" shape="23.1362,32.94045 26.53815,39.8677" speed="36.11111111111111" width="2.9350875710956243"/>
	</edge>
	<edge from="14" function="normal" id="3636" length="10.130444963203738" numLanes="2" priority="1" speed="36.11111111111111" spreadType="center" to="19">
		<lane allow="moped bicycle pedestrian custom1 trailer evehicle rail_urban ship private truck vip custom2 authority delivery rail_electric taxi tram army hov coach motorcycle passenger bus rail emergency" index="0" length="10.130444963203738" shape="-28.33565,-10.01375 -19.324550000000002,-14.699100000000001" speed="36.11111111111111" width="3.232186618993402"/>
		<lane allow="moped bicycle pedestrian custom1 trailer evehicle rail_urban ship private truck vip custom2 authority delivery rail_electric taxi tram army hov coach motorcycle passenger bus rail emergency" index="1" length="10.130444963203738" shape="-26.90485,-7.23315 -17.88015,-11.8354" speed="36.11111111111111" width="3.0254656269738045"/>
	</edge>
	<edge from="19" function="normal" id="3658" length="24.83401336288985" numLanes="2" priority="1" speed="36.11111111111111" spreadType="center" to="20">
		<lane allow="moped bicycle pedestrian custom1 trailer evehicle rail_urban ship private truck vip custom2 authority delivery rail_electric taxi tram army hov coach motorcycle passenger bus rail emergency" index="0" length="24.83401336288985" shape="-19.324550000000002,-14.699100000000001 -16.42875,-16.205 -13.77325,-17.58575 -11.0563,-18.99845 -8.068000000000001,-20.55235 -5.366350000000001,-21.957250000000002 -2.72165,-23.3324 -0.006099999999999994,-24.7444 2.76565,-26.18565" speed="36.11111111111111" width="3.308908788407443"/>
		<lane allow="moped bicycle pedestrian custom1 trailer evehicle rail_urban ship private truck vip custom2 authority delivery rail_electric taxi tram army hov coach motorcycle passenger bus rail emergency" index="1" length="24.83401336288985" shape="-17.88015,-11.8354 -15.01215,-13.298 -12.341149999999999,-14.66005 -9.60285,-16.0564 -6.63825,-17.56815 -3.9278000000000004,-18.950400000000002 -1.27785,-20.301650000000002 1.4566000000000001,-21.69595 4.2434,-23.1171" speed="36.11111111111111" width="3.105783426126167"/>
	</edge>
	<edge from="20" function="normal" id="3676" length="16.155928389455166" numLanes="2" priority="1" speed="36.11111111111111" spreadType="center" to="5">
		<lane allow="moped bicycle pedestrian custom1 trailer evehicle rail_urban ship private truck vip custom2 authority delivery rail_electric taxi tram army hov coach motorcycle passenger bus rail emergency" index="0" length="16.155928389455166" shape="2.76565,-26.18565 8.785350000000001,-29.1919 17.2194,-33.4039" speed="36.11111111111111" width="3.5034549033775226"/>
		<lane allow="moped bicycle pedestrian custom1 trailer evehicle rail_urban ship private truck vip custom2 authority delivery rail_electric taxi tram army hov coach motorcycle passenger bus rail emergency" index="1" length="16.155928389455166" shape="4.2434,-23.1171 10.26805,-26.102400000000003 18.764249999999997,-30.3123" speed="36.11111111111111" width="3.3082245268421544"/>
	</edge>
	<edge from="14" function="normal" id="3600" length="24.197467511365538" numLanes="1" priority="1" speed="36.11111111111111" spreadType="center" to="9">
		<lane allow="moped bicycle pedestrian custom1 trailer evehicle rail_urban ship private vip custom2 authority delivery rail_electric taxi tram army hov coach motorcycle passenger rail emergency" index="0" length="24.197467511365538" shape="-28.33565,-10.01375 -23.84735,-12.4087 -21.85435,-13.5988 -20.2513,-14.5094 -19.5082,-14.98935 -19.0841,-15.57695 -19.048299999999998,-16.383899999999997 -19.4555,-17.7955 -20.2564,-19.76165 -21.236849999999997,-21.86 -24.02975,-27.86195" speed="36.11111111111111" width="3.232186618993402"/>
	</edge>
	<edge from="21" function="normal" id="3502" length="11.53901742997741" numLanes="2" priority="1" speed="36.11111111111111" spreadType="center" to="22">
		<lane allow="moped bicycle pedestrian custom1 trailer evehicle rail_urban ship private truck vip custom2 authority delivery rail_electric taxi tram army hov coach motorcycle passenger bus rail emergency" index="0" length="11.53901742997741" shape="36.933350000000004,-27.7667 31.883650000000003,-25.298299999999998 26.539250000000003,-22.68575" speed="36.11111111111111" width="3.6072313177837665"/>
		<lane allow="moped bicycle pedestrian custom1 trailer evehicle rail_urban ship private truck vip custom2 authority delivery rail_electric taxi tram army hov coach motorcycle passenger bus rail emergency" index="1" length="11.53901742997741" shape="35.32875,-31.03255 30.35315,-28.599899999999998 24.9623,-25.96445" speed="36.11111111111111" width="3.630791497731595"/>
	</edge>
	<edge from="22" function="normal" id="3528" length="6.5755773961303206" numLanes="3" priority="1" speed="36.11111111111111" spreadType="center" to="23">
		<lane allow="moped bicycle pedestrian custom1 trailer evehicle rail_urban ship private truck vip custom2 authority delivery rail_electric taxi tram army hov coach motorcycle passenger bus rail emergency" index="0" length="6.5755773961303206" shape="26.539250000000003,-22.68575 22.1164,-16.663899999999998" speed="36.11111111111111" width="3.245737241367513"/>
		<lane allow="moped bicycle pedestrian custom1 trailer evehicle rail_urban ship private truck vip custom2 authority delivery rail_electric taxi tram army hov coach motorcycle passenger bus rail emergency" index="1" length="6.5755773961303206" shape="26.539250000000003,-22.68575 20.62725,-19.74575" speed="36.11111111111111" width="3.602433613545153"/>
		<lane allow="moped bicycle pedestrian custom1 trailer evehicle rail_urban ship private truck vip custom2 authority delivery rail_electric taxi tram army hov coach motorcycle passenger bus rail emergency" index="2" length="6.5755773961303206" shape="24.9623,-25.96445 19.07425,-23.037149999999997" speed="36.11111111111111" width="3.6713079753679065"/>
	</edge>
	<edge from="23" function="normal" id="3534" length="6.6083636571393365" numLanes="3" priority="1" speed="36.11111111111111" spreadType="center" to="24">
		<lane allow="moped bicycle pedestrian custom1 trailer evehicle rail_urban ship private truck vip custom2 authority delivery rail_electric taxi tram army hov coach motorcycle passenger bus rail emergency" index="0" length="6.6083636571393365" shape="22.1164,-16.663899999999998 16.13685,-13.77445" speed="36.11111111111111" width="3.190167196245362"/>
		<lane allow="moped bicycle pedestrian custom1 trailer evehicle rail_urban ship private truck vip custom2 authority delivery rail_electric taxi tram army hov coach motorcycle passenger bus rail emergency" index="1" length="6.6083636571393365" shape="20.62725,-19.74575 14.687100000000001,-16.801" speed="36.11111111111111" width="3.52156876973885"/>