<!-- generated on 2020-12-18 15:57:49.265706 by ipykernel_launcher.py v1_2_0+5214-53edc58fcd
-->
<nodes>
	<node id="1" type="from" x="18.42634" y="44.032000000000004"/>
	<node id="2" type="to" x="14.95935" y="37.04656"/>
	<node id="3" type="to" x="9.785191666666666" y="30.130983333333333"/>
	<node id="4" type="to" x="-1.211025" y="8.035008333333334"/>
	<node id="5" type="to" x="17.991825" y="-31.8581"/>
	<node id="6" type="to" x="30.828816666666665" y="-40.191183333333335"/>
	<node id="7" type="to" x="-8.5431" y="-3.486933333333333"/>
	<node id="8" type="to" x="-15.869399999999999" y="-18.381116666666667"/>
	<node id="9" type="to" x="-21.2513" y="-29.32036666666667"/>
	<node id="10" type="to" x="-38.23383333333333" y="-67.84896666666667"/>
	<node id="11" type="to" x="-21.4946" y="6.36365"/>
	<node id="12" type="to" x="-42.207483333333336" y="12.873166666666668"/>
	<node id="13" type="from" x="-47.27013333333333" y="2.8647833333333335"/>
	<node id="14" type="to" x="-26.9462" y="-7.240266666666667"/>
	<node id="15" type="to" x="8.30705" y="3.2336"/>
	<node id="16" type="to" x="22.0077" y="24.023016666666663"/>
	<node id="17" type="to" x="25.820383333333336" y="31.61233333333333"/>
	<node id="18" type="to" x="29.223333333333333" y="38.48921666666667"/>
	<node id="19" type="to" x="-18.60235" y="-13.26725"/>
	<node id="20" type="to" x="3.504525" y="-24.651375"/>
	<node id="21" type="from" x="36.13105" y="-29.399625"/>
	<node id="22" type="to" x="25.750775" y="-24.3251"/>
	<node id="23" type="to" x="20.605966666666667" y="-19.8156"/>
	<node id="24" type="to" x="14.662716666666666" y="-16.885316666666665"/>
	<node id="25" type="to" x="7.933175" y="-15.45515"/>
	<node id="26" type="to" x="-14.1542" y="-4.44925"/>
	<node id="27" type="from" x="-25.854260000000004" y="-73.94874"/>
	<node id="28" type="to" x="-7.240899999999999" y="-36.687259999999995"/>
	<node id="29" type="to" x="-2.0914166666666665" y="-25.61333333333333"/>
	<node id="30" type="to" x="5.2686" y="-10.237833333333334"/>
</nodes>
