<?xml version="1.0" encoding="UTF-8"?>

<!-- generated on Fri Dec 18 15:57:49 2020 by Eclipse SUMO netconvert Version 1.8.0
<configuration xmlns:xsi="http://www.w3.org/2001/XMLSchema-instance" xsi:noNamespaceSchemaLocation="http://sumo.dlr.de/xsd/netconvertConfiguration.xsd">

    <input>
        <node-files value="./converted_scenarios/NGSIM/Lankershim/USA_Lanker-1_2_I-1-1/nodes.net.xml"/>
        <edge-files value="./converted_scenarios/NGSIM/Lankershim/USA_Lanker-1_2_I-1-1/edges.net.xml"/>
        <connection-files value="./converted_scenarios/NGSIM/Lankershim/USA_Lanker-1_2_I-1-1/_connections.net.xml"/>
        <tllogic-files value="./converted_scenarios/NGSIM/Lankershim/USA_Lanker-1_2_I-1-1/_tll.net.xml"/>
    </input>

    <output>
        <output-file value="./converted_scenarios/NGSIM/Lankershim/USA_Lanker-1_2_I-1-1/USA_Lanker-1_2_I-1-1.net.xml"/>
    </output>

    <processing>
        <plain.extend-edge-shape value="true"/>
        <geometry.remove.keep-edges.explicit value="true"/>
        <geometry.avoid-overlap value="true"/>
        <offset.disable-normalization value="true"/>
    </processing>

    <junctions>
        <no-turnarounds value="true"/>
        <junctions.internal-link-detail value="20"/>
    </junctions>

    <report>
        <aggregate-warnings value="5"/>
    </report>

    <random_number>
        <seed value="1234"/>
    </random_number>

</configuration>
-->

<net version="1.6" junctionCornerDetail="5" junctionLinkDetail="20" limitTurnSpeed="5.50" xmlns:xsi="http://www.w3.org/2001/XMLSchema-instance" xsi:noNamespaceSchemaLocation="http://sumo.dlr.de/xsd/net_file.xsd">

    <location netOffset="0.00,0.00" convBoundary="-47.27,-73.95,36.13,44.03" origBoundary="-48.67,-76.68,36.93,46.78" projParameter="!"/>

    <edge id=":11_0" function="internal">
        <lane id=":11_0_0" index="0" disallow="bus truck rail_fast" speed="36.11" length="8.30" width="4.58" shape="-28.61,8.67 -20.75,6.00"/>
    </edge>
    <edge id=":11_1" function="internal">
        <lane id=":11_1_0" index="0" disallow="rail_fast" speed="36.11" length="1.01" width="3.11" shape="-21.66,1.15 -22.59,1.57"/>
        <lane id=":11_1_1" index="1" disallow="rail_fast" speed="36.11" length="1.01" width="3.66" shape="-22.98,-2.00 -23.89,-1.57"/>
    </edge>
    <edge id=":14_0" function="internal">
        <lane id=":14_0_0" index="0" disallow="bus truck rail_fast" speed="7.94" length="13.70" width="3.23" shape="-30.01,-9.18 -28.79,-9.79 -27.64,-10.38 -26.56,-10.94 -25.55,-11.48 -24.60,-11.99 -23.73,-12.47 -22.93,-12.93 -22.20,-13.37 -21.53,-13.78 -20.94,-14.16 -20.41,-14.52 -19.96,-14.85 -19.57,-15.16 -19.26,-15.44 -19.01,-15.70 -18.83,-15.93 -18.73,-16.14 -18.69,-16.32 -18.72,-16.48"/>
    </edge>
    <edge id=":14_1" function="internal">
        <lane id=":14_1_0" index="0" disallow="rail_fast" speed="36.11" length="13.45" width="3.23" shape="-30.01,-9.18 -18.08,-15.35"/>
        <lane id=":14_1_1" index="1" disallow="bus rail_fast" speed="36.11" length="13.45" width="3.03" shape="-28.62,-6.38 -16.61,-12.48"/>
    </edge>
    <edge id=":14_3" function="internal">
        <lane id=":14_3_0" index="0" disallow="bus truck rail_fast" speed="36.11" length="2.11" width="2.92" shape="-27.27,-3.64 -29.16,-2.72"/>
    </edge>
    <edge id=":15_0" function="internal">
        <lane id=":15_0_0" index="0" disallow="bus truck rail_fast" speed="9.12" length="13.80" width="3.05" shape="13.46,-11.62 13.09,-11.19 12.77,-10.74 12.49,-10.25 12.26,-9.74 12.08,-9.20 11.94,-8.63 11.84,-8.03 11.79,-7.41 11.79,-6.76 11.83,-6.07 11.92,-5.36 12.05,-4.63 12.23,-3.86 12.46,-3.06 12.73,-2.24 13.04,-1.39 13.40,-0.51 13.81,0.40 14.26,1.33"/>
    </edge>
    <edge id=":15_1" function="internal">
        <lane id=":15_1_0" index="0" disallow="rail_fast" speed="36.11" length="13.06" width="3.05" shape="8.62,-10.40 14.26,1.33"/>
        <lane id=":15_1_1" index="1" disallow="rail_fast" speed="36.11" length="13.06" width="2.91" shape="5.80,-9.04 11.45,2.74"/>
        <lane id=":15_1_2" index="2" disallow="rail_fast" speed="36.11" length="13.06" width="2.89" shape="3.08,-7.73 8.74,4.10"/>
    </edge>
    <edge id=":15_4" function="internal">
        <lane id=":15_4_0" index="0" disallow="bus truck rail_fast" speed="36.11" length="13.55" width="2.89" shape="2.23,-7.78 8.74,4.10"/>
    </edge>
    <edge id=":16_0" function="internal">
        <lane id=":16_0_0" index="0" disallow="rail_fast" speed="36.11" length="0.24" width="3.05" shape="24.60,22.59 24.70,22.80"/>
        <lane id=":16_0_1" index="1" disallow="rail_fast" speed="36.11" length="0.24" width="2.91" shape="21.93,23.92 22.04,24.14"/>
        <lane id=":16_0_2" index="2" disallow="rail_fast" speed="36.11" length="0.24" width="2.89" shape="19.33,25.22 19.45,25.45"/>
    </edge>
    <edge id=":17_0" function="internal">
        <lane id=":17_0_0" index="0" disallow="rail_fast" speed="36.11" length="3.05" width="3.05" shape="27.82,28.87 29.19,31.60"/>
        <lane id=":17_0_1" index="1" disallow="rail_fast" speed="36.11" length="3.05" width="3.00" shape="25.09,30.23 26.46,32.96"/>
        <lane id=":17_0_2" index="2" disallow="rail_fast" speed="36.11" length="3.05" width="2.94" shape="22.45,31.55 23.79,34.28"/>
    </edge>
    <edge id=":19_0" function="internal">
        <lane id=":19_0_0" index="0" disallow="rail_fast" speed="36.11" length="0.12" width="3.31" shape="-17.90,-15.44 -18.01,-15.39"/>
        <lane id=":19_0_1" index="1" disallow="rail_fast" speed="36.11" length="0.12" width="3.11" shape="-16.44,-12.57 -16.54,-12.52"/>
    </edge>
    <edge id=":2_0" function="internal">
        <lane id=":2_0_0" index="0" disallow="rail_fast" speed="21.97" length="7.43" width="2.94" shape="10.71,42.12 10.45,41.62 10.22,41.18 10.00,40.78 9.79,40.42 9.59,40.10 9.39,39.82 9.20,39.55 9.01,39.31 8.81,39.08 8.61,38.86 8.39,38.64 8.16,38.43 7.92,38.20 7.66,37.96 7.37,37.71 7.06,37.43 6.72,37.12 6.34,36.78 5.93,36.40"/>
        <lane id=":2_0_1" index="1" disallow="rail_fast" speed="36.11" length="7.43" width="2.94" shape="10.71,42.12 7.40,35.56"/>
        <lane id=":2_0_2" index="2" disallow="rail_fast" speed="36.11" length="7.43" width="3.05" shape="13.38,40.77 10.04,34.06"/>
        <lane id=":2_0_3" index="3" disallow="rail_fast" speed="36.11" length="7.43" width="3.03" shape="16.11,39.40 12.70,32.56"/>
        <lane id=":2_0_4" index="4" disallow="rail_fast" speed="36.11" length="7.43" width="3.05" shape="18.84,38.02 15.36,31.05"/>
        <lane id=":2_0_5" index="5" disallow="rail_fast" speed="36.11" length="7.43" width="3.12" shape="21.58,36.63 18.59,30.57"/>
    </edge>
    <edge id=":20_0" function="internal">
        <lane id=":20_0_0" index="0" disallow="rail_fast" speed="36.11" length="3.06" width="3.50" shape="1.37,-25.46 4.10,-26.85"/>
        <lane id=":20_0_1" index="1" disallow="rail_fast" speed="36.11" length="3.06" width="3.31" shape="2.88,-22.42 5.60,-23.79"/>
    </edge>
    <edge id=":22_0" function="internal">
        <lane id=":22_0_0" index="0" disallow="rail_fast" speed="14.45" length="8.28" width="3.25" shape="30.19,-24.47 29.65,-24.20 29.16,-23.96 28.71,-23.73 28.31,-23.52 27.95,-23.32 27.62,-23.13 27.32,-22.93 27.04,-22.74 26.78,-22.54 26.53,-22.33 26.29,-22.10 26.05,-21.86 25.81,-21.59 25.56,-21.30 25.31,-20.97 25.03,-20.61 24.73,-20.22 24.40,-19.78 24.05,-19.29"/>
        <lane id=":22_0_1" index="1" disallow="rail_fast" speed="36.11" length="8.28" width="3.60" shape="30.19,-24.47 22.95,-20.90"/>
        <lane id=":22_0_2" index="2" disallow="rail_fast" speed="36.11" length="8.28" width="3.67" shape="28.60,-27.74 20.90,-23.94"/>
    </edge>
    <edge id=":23_0" function="internal">
        <lane id=":23_0_0" index="0" disallow="rail_fast" speed="9.74" length="3.41" width="3.19" shape="22.71,-17.47 22.55,-17.25 22.39,-17.06 22.25,-16.90 22.11,-16.75 21.98,-16.63 21.85,-16.52 21.72,-16.42 21.60,-16.34 21.47,-16.26 21.34,-16.19 21.20,-16.13 21.05,-16.07 20.90,-16.00 20.73,-15.94 20.55,-15.87 20.36,-15.79 20.15,-15.70 19.92,-15.60 19.67,-15.48"/>
        <lane id=":23_0_1" index="1" disallow="rail_fast" speed="36.11" length="3.41" width="3.52" shape="21.23,-20.05 18.20,-18.54"/>
        <lane id=":23_0_2" index="2" disallow="rail_fast" speed="36.11" length="3.41" width="3.68" shape="19.42,-23.21 16.62,-21.81"/>
    </edge>
    <edge id=":24_0" function="internal">
        <lane id=":24_0_0" index="0" disallow="bus truck rail_fast" speed="14.27" length="3.68" width="2.93" shape="17.05,-14.22 16.80,-14.10 16.58,-13.99 16.38,-13.90 16.19,-13.81 16.02,-13.74 15.86,-13.66 15.72,-13.59 15.58,-13.52 15.45,-13.45 15.33,-13.37 15.20,-13.29 15.08,-13.20 14.95,-13.11 14.82,-13.00 14.68,-12.87 14.54,-12.74 14.38,-12.58 14.21,-12.40 14.02,-12.21"/>
    </edge>
    <edge id=":24_1" function="internal">
        <lane id=":24_1_0" index="0" disallow="rail_fast" speed="36.11" length="11.27" width="3.46" shape="15.60,-17.25 5.51,-12.26"/>
        <lane id=":24_1_1" index="1" disallow="rail_fast" speed="36.11" length="11.27" width="3.70" shape="14.04,-20.52 3.96,-15.46"/>
    </edge>
    <edge id=":24_3" function="internal">
        <lane id=":24_3_0" index="0" disallow="bus truck rail_fast" speed="17.55" length="16.88" width="3.01" shape="14.04,-20.52 12.90,-19.96 11.81,-19.46 10.77,-19.02 9.78,-18.62 8.83,-18.28 7.92,-17.98 7.05,-17.73 6.21,-17.52 5.39,-17.35 4.60,-17.21 3.82,-17.11 3.06,-17.04 2.30,-17.00 1.56,-16.98 0.82,-16.99 0.07,-17.02 -0.68,-17.07 -1.45,-17.13 -2.22,-17.21"/>
    </edge>
    <edge id=":25_0" function="internal">
        <lane id=":25_0_0" index="0" disallow="rail_fast" speed="36.11" length="2.24" width="3.21" shape="5.33,-12.17 7.34,-13.17"/>
        <lane id=":25_0_1" index="1" disallow="rail_fast" speed="36.11" length="2.24" width="3.68" shape="3.78,-15.37 5.77,-16.37"/>
    </edge>
    <edge id=":26_0" function="internal">
        <lane id=":26_0_0" index="0" disallow="rail_fast" speed="36.11" length="14.96" width="3.17" shape="-2.33,-8.38 -15.74,-1.75"/>
        <lane id=":26_0_1" index="1" disallow="rail_fast" speed="36.11" length="14.96" width="3.68" shape="-3.90,-11.52 -17.27,-4.83"/>
    </edge>
    <edge id=":26_2" function="internal">
        <lane id=":26_2_0" index="0" disallow="bus truck rail_fast" speed="11.28" length="15.17" width="3.68" shape="-8.43,-16.41 -8.60,-15.59 -8.79,-14.79 -9.02,-14.02 -9.28,-13.27 -9.58,-12.55 -9.91,-11.84 -10.27,-11.17 -10.67,-10.51 -11.10,-9.88 -11.57,-9.27 -12.07,-8.68 -12.60,-8.12 -13.17,-7.58 -13.77,-7.06 -14.40,-6.57 -15.07,-6.10 -15.77,-5.65 -16.51,-5.23 -17.27,-4.83"/>
    </edge>
    <edge id=":28_0" function="internal">
        <lane id=":28_0_0" index="0" disallow="bus truck rail_fast" speed="10.22" length="10.24" width="3.11" shape="-2.44,-41.48 -2.21,-41.08 -1.95,-40.69 -1.67,-40.31 -1.37,-39.95 -1.04,-39.59 -0.69,-39.26 -0.32,-38.93 0.07,-38.62 0.49,-38.32 0.93,-38.03 1.39,-37.76 1.87,-37.50 2.37,-37.25 2.90,-37.02 3.45,-36.80 4.03,-36.59 4.62,-36.39 5.24,-36.21 5.88,-36.04"/>
    </edge>
    <edge id=":28_1" function="internal">
        <lane id=":28_1_0" index="0" disallow="bus truck rail_fast" speed="11.58" length="11.05" width="3.13" shape="-5.49,-39.87 -5.13,-39.16 -4.79,-38.52 -4.46,-37.95 -4.14,-37.45 -3.83,-37.00 -3.51,-36.59 -3.19,-36.24 -2.86,-35.92 -2.51,-35.63 -2.15,-35.37 -1.76,-35.13 -1.34,-34.90 -0.89,-34.68 -0.40,-34.47 0.12,-34.25 0.70,-34.01 1.33,-33.77 2.01,-33.50 2.76,-33.20"/>
    </edge>
    <edge id=":28_2" function="internal">
        <lane id=":28_2_0" index="0" disallow="rail_fast" speed="36.11" length="10.45" width="3.12" shape="-5.49,-39.87 -0.93,-30.32"/>
        <lane id=":28_2_1" index="1" disallow="rail_fast" speed="36.11" length="10.45" width="3.06" shape="-8.23,-38.44 -3.73,-29.00"/>
        <lane id=":28_2_2" index="2" disallow="rail_fast" speed="36.11" length="10.45" width="2.98" shape="-10.92,-37.02 -6.46,-27.71"/>
    </edge>
    <edge id=":28_5" function="internal">
        <lane id=":28_5_0" index="0" disallow="bus truck rail_fast" speed="36.11" length="10.20" width="2.87" shape="-13.61,-35.61 -13.27,-34.92 -12.97,-34.30 -12.69,-33.74 -12.43,-33.23 -12.20,-32.77 -11.99,-32.34 -11.79,-31.93 -11.61,-31.55 -11.44,-31.18 -11.27,-30.81 -11.10,-30.43 -10.94,-30.04 -10.77,-29.63 -10.60,-29.19 -10.42,-28.71 -10.23,-28.19 -10.02,-27.61 -9.80,-26.97 -9.55,-26.26"/>
    </edge>
    <edge id=":29_0" function="internal">
        <lane id=":29_0_0" index="0" disallow="rail_fast" speed="36.11" length="3.22" width="3.12" shape="-0.05,-28.46 1.34,-25.56"/>
        <lane id=":29_0_1" index="1" disallow="rail_fast" speed="36.11" length="3.22" width="3.06" shape="-2.80,-27.06 -1.42,-24.15"/>
        <lane id=":29_0_2" index="2" disallow="rail_fast" speed="36.11" length="3.22" width="2.95" shape="-5.50,-25.69 -4.11,-22.78"/>
    </edge>
    <edge id=":3_0" function="internal">
        <lane id=":3_0_0" index="0" disallow="rail_fast" speed="15.71" length="3.50" width="3.22" shape="5.55,36.04 5.34,35.85 5.15,35.69 4.97,35.55 4.80,35.43 4.64,35.32 4.49,35.22 4.35,35.13 4.21,35.05 4.08,34.97 3.95,34.88 3.83,34.79 3.71,34.70 3.59,34.59 3.48,34.47 3.36,34.33 3.24,34.16 3.12,33.98 2.99,33.77 2.86,33.53"/>
        <lane id=":3_0_1" index="1" disallow="rail_fast" speed="36.11" length="3.50" width="2.87" shape="7.21,35.18 5.69,32.16"/>
        <lane id=":3_0_2" index="2" disallow="rail_fast" speed="36.11" length="3.50" width="3.00" shape="9.91,33.79 8.44,30.83"/>
        <lane id=":3_0_3" index="3" disallow="rail_fast" speed="36.11" length="3.50" width="3.02" shape="12.62,32.40 11.17,29.49"/>
        <lane id=":3_0_4" index="4" disallow="rail_fast" speed="36.11" length="3.50" width="3.02" shape="15.32,30.96 13.89,28.11"/>
        <lane id=":3_0_5" index="5" disallow="rail_fast" speed="36.11" length="3.50" width="3.03" shape="18.50,30.39 16.68,26.70"/>
    </edge>
    <edge id=":30_0" function="internal">
        <lane id=":30_0_0" index="0" disallow="rail_fast" speed="36.11" length="2.64" width="3.14" shape="7.39,-12.97 8.53,-10.58"/>
        <lane id=":30_0_1" index="1" disallow="rail_fast" speed="36.11" length="2.64" width="3.10" shape="4.58,-11.61 5.72,-9.22"/>
        <lane id=":30_0_2" index="2" disallow="rail_fast" speed="36.11" length="2.64" width="2.93" shape="1.86,-10.28 2.99,-7.91"/>
    </edge>
    <edge id=":4_0" function="internal">
        <lane id=":4_0_0" index="0" disallow="bus truck rail_fast" speed="36.11" length="5.96" width="3.84" shape="-6.40,15.11 -6.60,14.71 -6.78,14.35 -6.95,14.03 -7.09,13.73 -7.23,13.46 -7.35,13.21 -7.47,12.98 -7.58,12.76 -7.70,12.55 -7.81,12.35 -7.93,12.14 -8.07,11.94 -8.21,11.72 -8.37,11.49 -8.54,11.25 -8.74,10.99 -8.96,10.70 -9.21,10.39 -9.49,10.04"/>
    </edge>
    <edge id=":4_1" function="internal">
        <lane id=":4_1_0" index="0" disallow="rail_fast" speed="36.11" length="6.33" width="2.87" shape="-3.44,13.60 -6.29,7.91"/>
        <lane id=":4_1_1" index="1" disallow="rail_fast" speed="36.11" length="6.33" width="3.02" shape="-0.79,12.25 -3.63,6.59"/>
        <lane id=":4_1_2" index="2" disallow="rail_fast" speed="36.11" length="6.33" width="3.12" shape="1.94,10.85 -0.86,5.22"/>
    </edge>
    <edge id=":4_4" function="internal">
        <lane id=":4_4_0" index="0" disallow="bus truck rail_fast" speed="36.11" length="6.26" width="2.93" shape="4.68,9.46 1.89,3.86"/>
    </edge>
    <edge id=":4_5" function="internal">
        <lane id=":4_5_0" index="0" disallow="bus truck rail_fast" speed="36.11" length="6.22" width="3.03" shape="7.40,8.07 4.62,2.50"/>
    </edge>
    <edge id=":5_0" function="internal">
        <lane id=":5_0_0" index="0" disallow="bus truck rail_fast" speed="10.83" length="9.96" width="3.88" shape="6.74,-35.83 7.38,-35.67 7.96,-35.53 8.49,-35.41 8.98,-35.30 9.44,-35.22 9.86,-35.16 10.26,-35.12 10.64,-35.10 11.01,-35.10 11.38,-35.14 11.74,-35.19 12.11,-35.27 12.50,-35.38 12.90,-35.52 13.33,-35.68 13.79,-35.88 14.29,-36.10 14.83,-36.36 15.42,-36.64"/>
        <lane id=":5_0_1" index="1" disallow="bus truck rail_fast" speed="12.01" length="9.96" width="3.51" shape="6.61,-32.27 7.38,-32.09 8.08,-31.93 8.73,-31.79 9.32,-31.67 9.87,-31.58 10.38,-31.51 10.86,-31.46 11.32,-31.45 11.76,-31.46 12.20,-31.50 12.64,-31.57 13.08,-31.67 13.54,-31.80 14.03,-31.96 14.54,-32.16 15.09,-32.40 15.69,-32.67 16.34,-32.98 17.05,-33.32"/>
    </edge>
    <edge id=":5_2" function="internal">
        <lane id=":5_2_0" index="0" disallow="bus truck rail_fast" speed="36.11" length="10.89" width="3.51" shape="7.39,-28.22 17.05,-33.32"/>
        <lane id=":5_2_1" index="1" disallow="bus truck rail_fast" speed="36.11" length="10.89" width="3.38" shape="9.14,-24.90 9.80,-25.37 10.40,-25.79 10.94,-26.16 11.44,-26.50 11.90,-26.80 12.33,-27.06 12.73,-27.31 13.12,-27.53 13.50,-27.74 13.88,-27.94 14.27,-28.14 14.67,-28.34 15.10,-28.55 15.55,-28.77 16.05,-29.00 16.59,-29.26 17.19,-29.55 17.85,-29.87 18.58,-30.22"/>
    </edge>
    <edge id=":5_4" function="internal">
        <lane id=":5_4_0" index="0" disallow="rail_fast" speed="36.11" length="13.99" width="3.51" shape="4.53,-27.07 17.05,-33.32"/>
        <lane id=":5_4_1" index="1" disallow="rail_fast" speed="36.11" length="13.99" width="3.38" shape="6.05,-24.01 18.58,-30.22"/>
    </edge>
    <edge id=":7_0" function="internal">
        <lane id=":7_0_0" index="0" disallow="rail_fast" speed="36.11" length="3.02" width="3.06" shape="-10.60,-0.78 -11.95,-3.49"/>
        <lane id=":7_0_1" index="1" disallow="rail_fast" speed="36.11" length="3.02" width="2.99" shape="-7.88,-2.11 -9.21,-4.83"/>
        <lane id=":7_0_2" index="2" disallow="rail_fast" speed="36.11" length="3.02" width="3.06" shape="-5.13,-3.47 -6.46,-6.18"/>
    </edge>
    <edge id=":8_0" function="internal">
        <lane id=":8_0_0" index="0" disallow="rail_fast" speed="36.11" length="0.10" width="3.29" shape="-17.92,-15.54 -17.94,-15.57"/>
        <lane id=":8_0_1" index="1" disallow="rail_fast" speed="36.11" length="0.10" width="2.97" shape="-15.14,-16.97 -15.15,-17.00"/>
        <lane id=":8_0_2" index="2" disallow="rail_fast" speed="36.11" length="0.10" width="3.01" shape="-12.45,-18.36 -12.46,-18.39"/>
    </edge>
    <edge id=":9_0" function="internal">
        <lane id=":9_0_0" index="0" disallow="bus rail_fast" speed="36.11" length="15.32" width="2.85" shape="-18.02,-15.75 -24.82,-29.48"/>
        <lane id=":9_0_1" index="1" disallow="rail_fast" speed="36.11" length="15.32" width="2.97" shape="-15.24,-17.18 -21.97,-30.94"/>
        <lane id=":9_0_2" index="2" disallow="rail_fast" speed="36.11" length="15.32" width="2.96" shape="-12.55,-18.57 -19.30,-32.31"/>
    </edge>
    <edge id=":9_3" function="internal">
        <lane id=":9_3_0" index="0" disallow="bus truck rail_fast" speed="14.99" length="18.43" width="2.96" shape="-8.01,-18.26 -8.73,-18.59 -9.41,-18.94 -10.07,-19.34 -10.71,-19.78 -11.32,-20.26 -11.92,-20.78 -12.50,-21.35 -13.07,-21.96 -13.63,-22.62 -14.18,-23.34 -14.73,-24.10 -15.28,-24.92 -15.83,-25.79 -16.38,-26.73 -16.94,-27.72 -17.51,-28.77 -18.09,-29.89 -18.69,-31.07 -19.30,-32.31"/>
    </edge>
    <edge id=":9_4" function="internal">
        <lane id=":9_4_0" index="0" disallow="bus truck rail_fast" speed="36.11" length="14.16" width="2.85" shape="-18.81,-16.66 -24.82,-29.48"/>
    </edge>

    <edge id="3431" from="1" to="2" priority="1" spreadType="center" length="7.75">
        <lane id="3431_0" index="0" disallow="rail_fast" speed="36.11" length="7.75" width="2.84" customShape="1" shape="13.02,46.69 10.71,42.12"/>
        <lane id="3431_1" index="1" disallow="rail_fast" speed="36.11" length="7.75" width="3.06" customShape="1" shape="15.69,45.44 13.38,40.77"/>
        <lane id="3431_2" index="2" disallow="rail_fast" speed="36.11" length="7.75" width="3.03" customShape="1" shape="18.40,44.04 16.11,39.40"/>
        <lane id="3431_3" index="3" disallow="rail_fast" speed="36.11" length="7.75" width="3.05" customShape="1" shape="21.15,42.70 18.84,38.02"/>
        <lane id="3431_4" index="4" disallow="rail_fast" speed="36.11" length="7.75" width="3.05" customShape="1" shape="23.90,41.35 21.58,36.63"/>
    </edge>
    <edge id="3438" from="2" to="3" priority="1" spreadType="center" length="8.44">
        <lane id="3438_0" index="0" disallow="rail_fast" speed="36.11" length="8.44" width="2.94" customShape="1" shape="5.93,36.40 5.55,36.04"/>
        <lane id="3438_1" index="1" disallow="rail_fast" speed="36.11" length="8.44" width="2.94" customShape="1" shape="7.40,35.56 7.21,35.18"/>
        <lane id="3438_2" index="2" disallow="rail_fast" speed="36.11" length="8.44" width="3.05" customShape="1" shape="10.04,34.06 9.91,33.79"/>
        <lane id="3438_3" index="3" disallow="rail_fast" speed="36.11" length="8.44" width="3.03" customShape="1" shape="12.70,32.56 12.62,32.40"/>
        <lane id="3438_4" index="4" disallow="rail_fast" speed="36.11" length="8.44" width="3.05" customShape="1" shape="15.36,31.05 15.32,30.96"/>
        <lane id="3438_5" index="5" disallow="rail_fast" speed="36.11" length="8.44" width="3.12" customShape="1" shape="18.59,30.57 18.50,30.39"/>
    </edge>
    <edge id="3450" from="3" to="4" priority="1" spreadType="center" length="24.49">
        <lane id="3450_0" index="0" disallow="rail_fast" speed="36.11" length="24.49" width="3.22" customShape="1" shape="2.86,33.53 -0.32,27.26 -4.10,19.58 -6.40,15.11"/>
        <lane id="3450_1" index="1" disallow="rail_fast" speed="36.11" length="24.49" width="2.87" customShape="1" shape="5.69,32.16 2.68,26.11 -1.14,18.16 -3.44,13.60"/>
        <lane id="3450_2" index="2" disallow="rail_fast" speed="36.11" length="24.49" width="3.00" customShape="1" shape="8.44,30.83 5.42,24.78 1.56,16.83 -0.79,12.25"/>
        <lane id="3450_3" index="3" disallow="rail_fast" speed="36.11" length="24.49" width="3.02" customShape="1" shape="11.17,29.49 8.08,23.33 4.20,15.38 1.94,10.85"/>
        <lane id="3450_4" index="4" disallow="rail_fast" speed="36.11" length="24.49" width="3.02" customShape="1" shape="13.89,28.11 10.77,21.87 6.89,13.93 4.68,9.46"/>
        <lane id="3450_5" index="5" disallow="rail_fast" speed="36.11" length="24.49" width="3.03" customShape="1" shape="16.68,26.70 13.46,20.37 9.58,12.42 7.40,8.07"/>
    </edge>
    <edge id="3456" from="15" to="16" priority="1" spreadType="center" length="24.71">
        <lane id="3456_0" index="0" disallow="rail_fast" speed="36.11" length="24.71" width="3.05" customShape="1" shape="14.26,1.33 17.43,7.67 21.28,15.58 24.60,22.59"/>
        <lane id="3456_1" index="1" disallow="rail_fast" speed="36.11" length="24.71" width="2.91" customShape="1" shape="11.45,2.74 14.86,9.44 18.54,17.00 21.93,23.92"/>
        <lane id="3456_2" index="2" disallow="rail_fast" speed="36.11" length="24.71" width="2.89" customShape="1" shape="8.74,4.10 12.24,11.00 16.02,18.70 19.33,25.22"/>
    </edge>
    <edge id="3462" from="16" to="17" priority="1" spreadType="center" length="8.47">
        <lane id="3462_0" index="0" disallow="rail_fast" speed="36.11" length="8.47" width="3.05" customShape="1" shape="24.70,22.80 27.82,28.87"/>
        <lane id="3462_1" index="1" disallow="rail_fast" speed="36.11" length="8.47" width="2.91" customShape="1" shape="22.04,24.14 25.09,30.23"/>
        <lane id="3462_2" index="2" disallow="rail_fast" speed="36.11" length="8.47" width="2.89" customShape="1" shape="19.45,25.45 22.45,31.55"/>
    </edge>
    <edge id="3470" from="17" to="18" priority="1" spreadType="center" length="7.64">
        <lane id="3470_0" index="0" disallow="rail_fast" speed="36.11" length="7.64" width="3.05" customShape="1" shape="29.19,31.60 31.94,37.15"/>
        <lane id="3470_1" index="1" disallow="rail_fast" speed="36.11" length="7.64" width="3.00" customShape="1" shape="26.46,32.96 29.22,38.49"/>
        <lane id="3470_2" index="2" disallow="rail_fast" speed="36.11" length="7.64" width="2.94" customShape="1" shape="23.79,34.28 26.54,39.87"/>
    </edge>
    <edge id="3479" from="13" to="14" priority="1" spreadType="center" length="22.65">
        <lane id="3479_0" index="0" disallow="rail_fast" speed="36.11" length="22.65" width="3.23" customShape="1" shape="-48.67,0.10 -47.53,-0.48 -37.95,-5.23 -30.01,-9.18"/>
        <lane id="3479_1" index="1" disallow="bus rail_fast" speed="36.11" length="22.65" width="3.02" customShape="1" shape="-47.26,2.89 -46.10,2.30 -36.52,-2.45 -28.62,-6.38"/>
        <lane id="3479_2" index="2" disallow="bus rail_fast" speed="36.11" length="22.65" width="3.06" customShape="1" shape="-45.88,5.60 -44.69,5.00 -35.11,0.25 -27.27,-3.64"/>
    </edge>
    <edge id="3487" from="11" to="12" priority="1" spreadType="center" length="21.43">
        <lane id="3487_0" index="0" disallow="rail_fast" speed="36.11" length="21.43" width="4.58" acceleration="1" customShape="1" shape="-20.75,6.00 -30.71,10.80 -39.55,15.62 -40.44,16.11"/>
        <lane id="3487_1" index="1" disallow="rail_fast" speed="36.11" length="21.43" width="3.11" customShape="1" shape="-22.59,1.57 -32.60,6.95 -41.25,12.12 -42.28,12.74"/>
        <lane id="3487_2" index="2" disallow="rail_fast" speed="36.11" length="21.43" width="3.66" customShape="1" shape="-23.89,-1.57 -34.13,3.93 -42.78,9.10 -43.90,9.77"/>
    </edge>
    <edge id="3495" from="5" to="6" priority="1" spreadType="center" length="15.18">
        <lane id="3495_0" index="0" disallow="rail_fast" speed="36.11" length="15.18" width="3.88" customShape="1" shape="15.42,-36.64 24.32,-41.03 29.23,-43.44"/>
        <lane id="3495_1" index="1" disallow="rail_fast" speed="36.11" length="15.18" width="3.51" customShape="1" shape="17.05,-33.32 25.95,-37.70 30.87,-40.12"/>
        <lane id="3495_2" index="2" disallow="rail_fast" speed="36.11" length="15.18" width="3.38" customShape="1" shape="18.58,-30.22 27.44,-34.58 32.39,-37.01"/>
    </edge>
    <edge id="3502" from="21" to="22" priority="1" spreadType="center" length="11.54">
        <lane id="3502_0" index="0" disallow="rail_fast" speed="36.11" length="11.54" width="3.61" customShape="1" shape="36.93,-27.77 31.88,-25.30 30.19,-24.47"/>
        <lane id="3502_1" index="1" disallow="rail_fast" speed="36.11" length="11.54" width="3.63" customShape="1" shape="35.33,-31.03 30.35,-28.60 28.60,-27.74"/>
    </edge>
    <edge id="3528" from="22" to="23" priority="1" spreadType="center" length="6.58">
        <lane id="3528_0" index="0" disallow="rail_fast" speed="36.11" length="6.58" width="3.25" customShape="1" shape="24.05,-19.29 22.71,-17.47"/>
        <lane id="3528_1" index="1" disallow="rail_fast" speed="36.11" length="6.58" width="3.60" customShape="1" shape="22.95,-20.90 21.23,-20.05"/>
        <lane id="3528_2" index="2" disallow="rail_fast" speed="36.11" length="6.58" width="3.67" customShape="1" shape="20.90,-23.94 19.42,-23.21"/>
    </edge>
    <edge id="3534" from="23" to="24" priority="1" spreadType="center" length="6.61">
        <lane id="3534_0" index="0" disallow="rail_fast" speed="36.11" length="6.61" width="3.19" customShape="1" shape="19.67,-15.48 17.05,-14.22"/>
        <lane id="3534_1" index="1" disallow="rail_fast" speed="36.11" length="6.61" width="3.52" customShape="1" shape="18.20,-18.54 15.60,-17.25"/>
        <lane id="3534_2" index="2" disallow="rail_fast" speed="36.11" length="6.61" width="3.68" customShape="1" shape="16.62,-21.81 14.04,-20.52"/>
    </edge>
    <edge id="3542" from="9" to="10" priority="1" spreadType="center" length="42.05">
        <lane id="3542_0" index="0" disallow="bus rail_fast" speed="36.11" length="42.05" width="2.85" customShape="1" shape="-24.82,-29.48 -28.19,-36.40 -32.24,-45.33 -36.02,-54.05 -39.64,-63.29 -41.04,-66.70"/>
        <lane id="3542_1" index="1" disallow="rail_fast" speed="36.11" length="42.05" width="2.97" customShape="1" shape="-21.97,-30.94 -25.43,-37.91 -29.51,-46.69 -33.25,-55.38 -36.91,-64.50 -38.25,-67.84"/>
        <lane id="3542_2" index="2" disallow="rail_fast" speed="36.11" length="42.05" width="2.96" customShape="1" shape="-19.30,-32.31 -22.76,-39.42 -26.81,-48.15 -30.58,-56.83 -34.08,-65.63 -35.41,-69.01"/>
    </edge>
    <edge id="3573" from="27" to="28" priority="1" spreadType="center" length="41.48">
        <lane id="3573_0" index="0" disallow="rail_fast" speed="36.11" length="41.48" width="3.35" customShape="1" shape="-20.32,-76.68 -18.66,-73.34 -14.40,-64.77 -9.97,-55.83 -5.67,-47.37 -2.44,-41.48"/>
        <lane id="3573_1" index="1" disallow="rail_fast" speed="36.11" length="41.48" width="2.88" customShape="1" shape="-23.18,-75.27 -21.43,-71.78 -17.24,-63.40 -12.70,-54.34 -8.48,-45.91 -5.49,-39.87"/>
        <lane id="3573_2" index="2" disallow="rail_fast" speed="36.11" length="41.48" width="3.08" customShape="1" shape="-25.90,-73.93 -24.12,-70.38 -19.93,-62.00 -15.39,-52.94 -11.17,-44.51 -8.23,-38.44"/>
        <lane id="3573_3" index="3" disallow="rail_fast" speed="36.11" length="41.48" width="2.82" customShape="1" shape="-28.59,-72.61 -26.79,-69.02 -22.60,-60.64 -18.06,-51.58 -13.89,-43.10 -10.92,-37.02"/>
        <lane id="3573_4" index="4" disallow="rail_fast" speed="36.11" length="41.48" width="3.05" customShape="1" shape="-31.30,-71.27 -29.49,-67.59 -25.30,-59.22 -20.76,-50.15 -16.59,-41.68 -13.61,-35.61"/>
    </edge>
    <edge id="3600" from="14" to="9" priority="1" spreadType="center" length="24.20">
        <lane id="3600_0" index="0" disallow="bus truck rail_fast" speed="36.11" length="24.20" width="3.23" customShape="1" shape="-18.72,-16.48 -18.81,-16.66"/>
    </edge>
    <edge id="3602" from="24" to="15" priority="1" spreadType="center" length="16.41">
        <lane id="3602_0" index="0" disallow="bus truck rail_fast" speed="36.11" length="16.41" width="2.93" customShape="1" shape="14.02,-12.21 13.46,-11.62"/>
    </edge>
    <edge id="3604" from="4" to="11" priority="1" spreadType="center" length="15.84">
        <lane id="3604_0" index="0" disallow="bus truck rail_fast" speed="36.11" length="15.84" width="3.84" customShape="1" shape="-9.49,10.04 -10.49,8.80 -11.88,7.41 -13.76,6.17 -15.46,5.59 -17.26,5.39 -19.18,5.61 -28.61,8.67"/>
    </edge>