<routes>
	<vehicle depart="0.1" departLane="4" departPos="21.70659312112952" departSpeed="3.3467" id="1314" type="passenger">
		<route edges="3450 3664 3664 3664 3495"/>
	</vehicle>
	<vehicle depart="0.1" departLane="4" departPos="13.16831739531036" departSpeed="1.7587" id="1316" type="passenger">
		<route edges="3450 3664 3664 3495"/>
	</vehicle>
	<vehicle depart="0.1" departLane="4" departPos="8.49330288595079" departSpeed="0.11278" id="1329" type="passenger">
		<route edges="3438 3450 3664 3495"/>
	</vehicle>
	<vehicle depart="0.1" departLane="3" departPos="0" departSpeed="0.16154" id="1332" type="passenger">
		<route edges="3431 3438 3450 3664 3495"/>
	</vehicle>
	<vehicle depart="0.1" departLane="4" departPos="0" departSpeed="0.11278" id="1408" type="passenger">
		<route edges="3450 3664 3495"/>
	</vehicle>
	<vehicle depart="0.1" departLane="4" departPos="0" departSpeed="0.11278" id="1432" type="passenger">
		<route edges="3438 3450 3664 3495"/>
	</vehicle>
	<vehicle depart="0.1" departLane="1" departPos="0" departSpeed="6.9525" id="1434" type="passenger">
		<route edges="3664 3672 3662 3662 3668 3664 3495"/>
	</vehicle>
	<vehicle depart="0.1" departLane="5" departPos="0" departSpeed="0.40538" id="1437" type="passenger">
		<route edges="3450 3664 3495"/>
	</vehicle>
	<vehicle depart="0.1" departLane="5" departPos="18.810010701361726" departSpeed="3.6424" id="1443" type="passenger">
		<route edges="3450 3664 3672 3662 3662 3668 3652 3668 3664 3495"/>
	</vehicle>
	<vehicle depart="0.1" departLane="1" departPos="22.806546289591143" departSpeed="0.28956" id="1458" type="passenger">
		<route edges="3450 3610 3646 3626 3542"/>
	</vehicle>
	<vehicle depart="0.1" departLane="1" departPos="15.637690064245636" departSpeed="0.19202" id="1463" type="passenger">
		<route edges="3450 3610 3646 3626 3542"/>
	</vehicle>
	<vehicle depart="0.1" departLane="5" departPos="0" departSpeed="0.56693" id="1479" type="passenger">
		<route edges="3450 3664 3495"/>
	</vehicle>
	<vehicle depart="0.1" departLane="2" departPos="0" departSpeed="0.16154" id="1485" type="passenger">
		<route edges="3610 3646 3626 3542"/>
	</vehicle>
	<vehicle depart="0.1" departLane="2" departPos="22.869940521094986" departSpeed="0.16154" id="1487" type="passenger">
		<route edges="3450 3610 3646 3626 3542"/>
	</vehicle>
	<vehicle depart="0.1" departLane="2" departPos="17.260280989092447" departSpeed="0.16154" id="1489" type="passenger">
		<route edges="3450 3610 3646 3626 3542"/>
	</vehicle>
	<vehicle depart="0.1" departLane="3" departPos="17.352877600198823" departSpeed="0.16459" id="1492" type="passenger">
		<route edges="3450 3610 3646 3626 3542"/>
	</vehicle>
	<vehicle depart="0.1" departLane="2" departPos="41.65840591059532" departSpeed="0.11278" id="1494" type="passenger">
		<route edges="3573 3632 3652 3616 3456 3462 3470"/>
	</vehicle>
	<vehicle depart="0.1" departLane="3" departPos="0" departSpeed="0.11582" id="1495" type="passenger">
		<route edges="3450 3610 3646 3626 3542"/>
	</vehicle>
	<vehicle depart="0.1" departLane="2" departPos="0" departSpeed="0.16154" id="1496" type="passenger">
		<route edges="3450 3610 3646 3626 3542"/>
	</vehicle>
	<vehicle depart="0.1" departLane="0" departPos="9.339200146149603" departSpeed="4.6055" id="1497" type="passenger">
		<route edges="3670 3640 3640 3604 3487"/>
	</vehicle>
	<vehicle depart="0.1" departLane="3" departPos="8.472730326907616" departSpeed="0.16154" id="1501" type="passenger">
		<route edges="3438 3450 3610 3646 3626 3542"/>
	</vehicle>
	<vehicle depart="0.1" departLane="2" departPos="0" departSpeed="0.27432" id="1504" type="passenger">
		<route edges="3450 3610 3646 3626 3542"/>
	</vehicle>
	<vehicle depart="0.1" departLane="1" departPos="0" departSpeed="0.11278" id="1505" type="passenger">
		<route edges="3450 3610 3646 3626 3542"/>
	</vehicle>
	<vehicle depart="0.1" departLane="3" departPos="0" departSpeed="0.0" id="1508" type="passenger">
		<route edges="3438 3450 3610 3646 3626 3542"/>
	</vehicle>
	<vehicle depart="0.1" departLane="1" departPos="0" departSpeed="5.7455" id="1509" type="passenger">
		<route edges="3431 3438 3450 3610 3646 3626 3542"/>
	</vehicle>
	<vehicle depart="0.1" departLane="1" departPos="41.56189728917717" departSpeed="0.0" id="1513" type="passenger">
		<route edges="3573 3680 3495"/>
	</vehicle>
	<vehicle depart="0.1" departLane="3" departPos="41.74398239742747" departSpeed="0.16154" id="1515" type="passenger">
		<route edges="3573 3632 3652 3616 3456 3462 3470"/>
	</vehicle>
	<vehicle depart="0.1" departLane="1" departPos="31.930911220905706" departSpeed="0.11278" id="1519" type="passenger">
		<route edges="3573 3680 3495"/>
	</vehicle>
	<vehicle depart="0.1" departLane="1" departPos="8.52073228807243" departSpeed="2.6914" id="1520" type="passenger">
		<route edges="3438 3450 3610 3646 3626 3542"/>
	</vehicle>
	<vehicle depart="0.1" departLane="1" departPos="0" departSpeed="4.7915" id="1526" type="passenger">
		<route edges="3456 3462 3470"/>
	</vehicle>
	<vehicle depart="0.1" departLane="0" departPos="4.090041135515556" departSpeed="5.4986" id="1529" type="passenger">
		<route edges="3431 3438 3450 3610 3646 3626 3542"/>
	</vehicle>
	<vehicle depart="0.1" departLane="1" departPos="20.759213957005326" departSpeed="0.0" id="1535" type="passenger">
		<route edges="3573 3680 3495"/>
	</vehicle>
	<vehicle depart="0.1" departLane="1" departPos="13.803976029527494" departSpeed="0.11278" id="1542" type="passenger">
		<route edges="3573 3680 3495"/>
	</vehicle>
	<vehicle depart="0.1" departLane="0" departPos="0" departSpeed="9.333" id="1546" type="passenger">
		<route edges="3462 3470"/>
	</vehicle>
	<vehicle depart="0.1" departLane="1" departPos="0" departSpeed="0.10363" id="1547" type="passenger">
		<route edges="3573 3680 3495"/>
	</vehicle>
	<vehicle depart="0.1" departLane="0" departPos="0" departSpeed="0.0" id="1549" type="passenger">
		<route edges="3620 3662 3640 3487"/>
	</vehicle>
	<vehicle depart="0.1" departLane="0" departPos="0" departSpeed="6.1387" id="1553" type="passenger">
		<route edges="3680 3495"/>
	</vehicle>
	<vehicle depart="0.1" departLane="0" departPos="18.199972804996875" departSpeed="7.0683" id="1554" type="passenger">
		<route edges="3680 3495"/>
	</vehicle>
	<vehicle depart="0.1" departLane="1" departPos="0" departSpeed="13.7465" id="1555" type="passenger">
		<route edges="3462 3470"/>
	</vehicle>
	<vehicle depart="0.1" departLane="0" departPos="0" departSpeed="2.2647" id="1562" type="passenger">
		<route edges="3602 3616 3616 3456 3462 3470"/>
	</vehicle>
	<vehicle depart="0.1" departLane="4" departPos="24.330524795294046" departSpeed="9.7963" id="1563" type="passenger">
		<route edges="3573 3670 3668 3658 3646 3646 3670 3640 3487"/>
	</vehicle>
	<vehicle depart="0.1" departLane="2" departPos="32.09852697514908" departSpeed="0.0" id="11429" type="passenger">
		<route edges="3573 3632 3652 3616 3456 3462 3470"/>
	</vehicle>
</routes>
