<routes>
	<vehicle depart="0.1" departLane="0" departPos="59.89885477364386" departSpeed="0.0" id="32" type="passenger">
		<route edges="21732 22007"/>
	</vehicle>
	<vehicle depart="0.1" departLane="0" departPos="25.316019802267313" departSpeed="2.3383534" id="37" type="passenger">
		<route edges=":34_8 22280"/>
	</vehicle>
	<vehicle depart="0.1" departLane="0" departPos="8.402252376708562" departSpeed="0.57005216" id="310" type="passenger">
		<route edges=":34_8 22280"/>
	</vehicle>
	<vehicle depart="0.1" departLane="0" departPos="16.50493577252395" departSpeed="1.7910096" id="345" type="passenger">
		<route edges="22004 22007"/>
	</vehicle>
	<vehicle depart="0.1" departLane="0" departPos="14.585360268276123" departSpeed="8.7567309" id="358" type="motorcycle">
		<route edges=":34_2 21731"/>
	</vehicle>
	<vehicle depart="0.1" departLane="0" departPos="41.854565412508144" departSpeed="1.8997124" id="30" type="truck">
		<route edges="22004 22007"/>
	</vehicle>
	<vehicle depart="0.1" departLane="0" departPos="69.90036524742712" departSpeed="0.0" id="31" type="truck">
		<route edges="21732 22007"/>
	</vehicle>
	<vehicle depart="0.1" departLane="0" departPos="30.123961867918137" departSpeed="1.1560989" id="325" type="truck">
		<route edges="22004 22007"/>
	</vehicle>
	<vehicle depart="0.1" departLane="0" departPos="48.561273626289136" departSpeed="9.4408746" id="361" type="truck">
		<route edges="22006 22003"/>
	</vehicle>
</routes>
