<routes>
	<vehicle depart="0.1" departLane="0" departPos="30.885025119819332" departSpeed="0.43342656" id="311" type="bicycle">
		<route edges=":49_0 39332 39335 39107"/>
	</vehicle>
	<vehicle depart="0.1" departLane="0" departPos="22.546012055285555" departSpeed="2.3274458" id="346" type="bus">
		<route edges=":51_4 39335"/>
	</vehicle>
	<vehicle depart="0.1" departLane="0" departPos="8.342485482960232" departSpeed="4.874049" id="32" type="passenger">
		<route edges=":51_2 39331"/>
	</vehicle>
	<vehicle depart="0.1" departLane="0" departPos="7.139889996021464" departSpeed="0.28353807" id="34" type="passenger">
		<route edges=":51_0 39441"/>
	</vehicle>
	<vehicle depart="0.1" departLane="0" departPos="23.09127467044705" departSpeed="0.38140886" id="314" type="passenger">
		<route edges="39105 39334"/>
	</vehicle>
	<vehicle depart="0.1" departLane="0" departPos="2.5" departSpeed="9.2505549" id="316" type="passenger">
		<route edges=":49_4 39328 39110"/>
	</vehicle>
	<vehicle depart="0.1" departLane="0" departPos="21.557438906963032" departSpeed="1.6163684" id="317" type="passenger">
		<route edges=":49_3 39332"/>
	</vehicle>
	<vehicle depart="0.1" departLane="0" departPos="4.975186177673091" departSpeed="0.025864312" id="319" type="passenger">
		<route edges="39382 39107"/>
	</vehicle>
	<vehicle depart="0.1" departLane="0" departPos="2.5" departSpeed="4.7912161" id="336" type="passenger">
		<route edges=":49_3 39332"/>
	</vehicle>
	<vehicle depart="0.1" departLane="0" departPos="10.244815976623062" departSpeed="0.58763732" id="30" type="truck">
		<route edges=":50_11 39334"/>
	</vehicle>
</routes>
