<?xml version="1.0" encoding="UTF-8"?>

<!-- generated on Fri Dec 18 15:41:03 2020 by Eclipse SUMO netconvert Version 1.8.0
<configuration xmlns:xsi="http://www.w3.org/2001/XMLSchema-instance" xsi:noNamespaceSchemaLocation="http://sumo.dlr.de/xsd/netconvertConfiguration.xsd">

    <input>
        <node-files value="./converted_scenarios/hand-crafted/ZAM_Tjunction-1_350_I-1-1/nodes.net.xml"/>
        <edge-files value="./converted_scenarios/hand-crafted/ZAM_Tjunction-1_350_I-1-1/edges.net.xml"/>
        <connection-files value="./converted_scenarios/hand-crafted/ZAM_Tjunction-1_350_I-1-1/_connections.net.xml"/>
        <tllogic-files value="./converted_scenarios/hand-crafted/ZAM_Tjunction-1_350_I-1-1/_tll.net.xml"/>
    </input>

    <output>
        <output-file value="./converted_scenarios/hand-crafted/ZAM_Tjunction-1_350_I-1-1/ZAM_Tjunction-1_350_I-1-1.net.xml"/>
    </output>

    <processing>
        <plain.extend-edge-shape value="true"/>
        <geometry.remove.keep-edges.explicit value="true"/>
        <geometry.avoid-overlap value="true"/>
        <offset.disable-normalization value="true"/>
    </processing>

    <junctions>
        <no-turnarounds value="true"/>
        <junctions.internal-link-detail value="20"/>
    </junctions>

    <report>
        <aggregate-warnings value="5"/>
    </report>

    <random_number>
        <seed value="1234"/>
    </random_number>

</configuration>
-->

<net version="1.6" junctionCornerDetail="5" junctionLinkDetail="20" limitTurnSpeed="5.50" xmlns:xsi="http://www.w3.org/2001/XMLSchema-instance" xsi:noNamespaceSchemaLocation="http://sumo.dlr.de/xsd/net_file.xsd">

    <location netOffset="0.00,0.00" convBoundary="-131.99,-36.65,100.51,183.01" origBoundary="-131.99,-36.65,100.51,183.01" projParameter="!"/>

    <edge id=":12_0" function="internal">
        <lane id=":12_0_0" index="0" disallow="bus truck rail_fast" speed="7.75" length="12.66" width="4.11" shape="14.21,16.35 14.39,15.32 14.53,14.33 14.64,13.39 14.71,12.51 14.74,11.67 14.74,10.89 14.70,10.15 14.63,9.46 14.52,8.82 14.37,8.24 14.19,7.70 13.97,7.21 13.71,6.77 13.42,6.38 13.09,6.04 12.73,5.75 12.33,5.51 11.89,5.32 11.42,5.18"/>
    </edge>
    <edge id=":12_1" function="internal">
        <lane id=":12_1_0" index="0" disallow="bus truck rail_fast" speed="16.20" length="14.61" width="3.96" shape="14.21,16.35 14.32,15.57 14.37,14.78 14.36,13.98 14.32,13.18 14.24,12.37 14.14,11.57 14.03,10.77 13.91,9.97 13.80,9.18 13.70,8.40 13.64,7.63 13.60,6.87 13.62,6.14 13.68,5.42 13.81,4.72 14.02,4.04 14.31,3.40 14.70,2.78 15.18,2.19"/>
    </edge>
    <edge id=":2_0" function="internal">
        <lane id=":2_0_0" index="0" disallow="bus truck rail_fast" speed="36.11" length="32.13" width="3.69" shape="-17.01,0.12 -16.08,0.15 -14.90,0.17 -13.50,0.17 -11.90,0.15 -10.13,0.13 -8.23,0.09 -6.22,0.04 -4.14,-0.02 -2.02,-0.09 0.12,-0.16 2.24,-0.24 4.32,-0.33 6.33,-0.42 8.23,-0.52 9.99,-0.61 11.59,-0.71 12.99,-0.81 14.17,-0.90 15.09,-1.00"/>
    </edge>
    <edge id=":2_1" function="internal">
        <lane id=":2_1_0" index="0" disallow="bus truck rail_fast" speed="17.06" length="33.85" width="3.00" shape="-17.01,0.12 -16.60,0.14 -15.73,0.18 -14.45,0.24 -12.82,0.32 -10.89,0.42 -8.71,0.53 -6.35,0.66 -3.85,0.79 -1.28,0.94 1.32,1.09 3.89,1.25 6.37,1.41 8.71,1.57 10.86,1.74 12.76,1.90 14.35,2.05 15.57,2.21 16.39,2.35 16.73,2.49"/>
    </edge>
    <edge id=":3_0" function="internal">
        <lane id=":3_0_0" index="0" disallow="bus truck rail_fast" speed="36.11" length="26.08" width="2.52" shape="11.22,5.13 10.36,4.96 9.34,4.80 8.16,4.66 6.86,4.54 5.44,4.44 3.94,4.34 2.37,4.26 0.75,4.19 -0.91,4.12 -2.57,4.07 -4.23,4.02 -5.85,3.97 -7.43,3.93 -8.94,3.89 -10.37,3.85 -11.68,3.82 -12.87,3.78 -13.92,3.73 -14.79,3.69"/>
    </edge>
    <edge id=":3_1" function="internal">
        <lane id=":3_1_0" index="0" disallow="bus truck rail_fast" speed="36.11" length="30.62" width="2.52" shape="15.80,2.84 14.89,2.92 13.75,3.00 12.40,3.09 10.87,3.17 9.19,3.25 7.39,3.33 5.49,3.41 3.53,3.48 1.52,3.54 -0.50,3.60 -2.51,3.65 -4.47,3.70 -6.37,3.73 -8.18,3.76 -9.85,3.77 -11.38,3.77 -12.74,3.76 -13.88,3.73 -14.79,3.69"/>
    </edge>
    <edge id=":5_0" function="internal">
        <lane id=":5_0_0" index="0" disallow="rail_fast" speed="36.11" length="13.54" width="3.79" shape="15.29,-1.02 16.06,-1.12 16.81,-1.21 17.54,-1.30 18.26,-1.40 18.96,-1.49 19.64,-1.59 20.32,-1.69 20.99,-1.80 21.66,-1.90 22.33,-2.01 22.99,-2.13 23.66,-2.25 24.34,-2.38 25.02,-2.51 25.71,-2.65 26.42,-2.79 27.14,-2.94 27.88,-3.10 28.64,-3.27"/>
    </edge>
    <edge id=":5_1" function="internal">
        <lane id=":5_1_0" index="0" disallow="bus truck rail_fast" speed="15.70" length="14.58" width="3.79" shape="15.32,2.04 15.88,1.49 16.46,0.99 17.06,0.53 17.68,0.12 18.33,-0.26 18.99,-0.60 19.67,-0.91 20.37,-1.19 21.08,-1.45 21.80,-1.68 22.53,-1.90 23.28,-2.09 24.03,-2.28 24.79,-2.45 25.56,-2.61 26.32,-2.78 27.09,-2.94 27.87,-3.10 28.64,-3.27"/>
    </edge>
    <edge id=":8_0" function="internal">
        <lane id=":8_0_0" index="0" disallow="bus truck rail_fast" speed="8.11" length="11.93" width="3.44" shape="29.74,0.59 28.62,0.82 27.56,1.05 26.55,1.28 25.61,1.51 24.73,1.73 23.91,1.95 23.15,2.16 22.45,2.37 21.81,2.58 21.24,2.79 20.72,2.99 20.26,3.19 19.86,3.39 19.52,3.58 19.25,3.78 19.03,3.96 18.88,4.15 18.78,4.33 18.74,4.51"/>
    </edge>
    <edge id=":8_1" function="internal">
        <lane id=":8_1_0" index="0" disallow="rail_fast" speed="36.11" length="13.88" width="3.52" shape="29.74,0.59 28.98,0.75 28.23,0.90 27.49,1.04 26.77,1.18 26.06,1.32 25.35,1.45 24.65,1.58 23.96,1.70 23.27,1.82 22.58,1.94 21.88,2.05 21.19,2.16 20.49,2.26 19.78,2.36 19.06,2.46 18.33,2.55 17.59,2.64 16.83,2.73 16.05,2.81"/>
    </edge>
    <edge id=":9_0" function="internal">
        <lane id=":9_0_0" index="0" disallow="bus truck rail_fast" speed="36.11" length="7.12" width="3.44" shape="18.74,4.71 18.73,5.24 18.72,5.72 18.72,6.15 18.72,6.55 18.73,6.91 18.73,7.24 18.74,7.55 18.75,7.84 18.75,8.13 18.76,8.41 18.76,8.70 18.76,8.99 18.75,9.30 18.73,9.63 18.71,9.99 18.68,10.38 18.64,10.81 18.58,11.28 18.52,11.81"/>
    </edge>
    <edge id=":9_1" function="internal">
        <lane id=":9_1_0" index="0" disallow="bus truck rail_fast" speed="10.82" length="9.70" width="3.44" shape="16.85,2.65 17.24,3.23 17.59,3.76 17.89,4.26 18.15,4.72 18.36,5.15 18.54,5.56 18.68,5.96 18.79,6.35 18.87,6.74 18.92,7.13 18.95,7.53 18.95,7.94 18.93,8.38 18.89,8.85 18.84,9.35 18.77,9.89 18.69,10.48 18.61,11.12 18.52,11.81"/>
    </edge>

    <edge id="50195" from="1" to="2" priority="1" spreadType="center" length="139.57">
        <lane id="50195_0" index="0" disallow="bus truck rail_fast" speed="36.11" length="139.57" width="2.70" customShape="1" shape="-130.86,-36.65 -113.80,-28.59 -95.85,-20.64 -95.14,-20.33 -88.40,-17.49 -81.64,-14.83 -80.62,-14.44 -66.53,-9.13 -65.86,-8.89 -58.75,-6.57 -57.96,-6.33 -51.57,-4.55 -51.34,-4.49 -46.63,-3.22 -45.68,-3.02 -41.58,-2.27 -40.05,-2.03 -32.63,-1.11 -21.50,-0.12 -17.01,0.12"/>
    </edge>
    <edge id="50197" from="3" to="4" priority="1" spreadType="center" length="140.14">
        <lane id="50197_0" index="0" disallow="bus truck rail_fast" speed="36.11" length="140.14" width="2.52" customShape="1" shape="-14.79,3.69 -20.77,3.31 -21.73,3.22 -32.27,2.03 -32.70,1.97 -40.45,0.88 -42.34,0.55 -46.25,-0.30 -51.49,-1.62 -52.13,-1.81 -59.58,-4.00 -66.86,-6.32 -67.49,-6.54 -82.19,-11.86 -82.71,-12.05 -89.53,-14.53 -90.09,-14.75 -97.09,-17.72 -99.31,-18.69 -115.04,-26.02 -131.99,-33.89"/>
    </edge>
    <edge id="50199" from="5" to="6" priority="1" spreadType="center" length="72.92">
        <lane id="50199_0" index="0" disallow="rail_fast" speed="36.11" length="72.92" width="3.79" customShape="1" shape="28.64,-3.27 41.34,-6.08 52.77,-8.58 53.28,-8.70 63.16,-10.72 71.81,-11.84 72.15,-11.88 80.61,-12.31 89.31,-12.34 90.12,-12.32 100.51,-11.97"/>
    </edge>
    <edge id="50201" from="7" to="8" priority="1" spreadType="center" length="71.74">
        <lane id="50201_0" index="0" disallow="rail_fast" speed="36.11" length="71.74" width="3.59" customShape="1" shape="100.34,-8.28 89.99,-8.51 88.46,-8.53 80.73,-8.41 72.27,-7.66 63.95,-6.32 53.65,-4.29 29.74,0.59"/>
    </edge>
    <edge id="50203" from="9" to="10" priority="1" spreadType="center" length="183.10">
        <lane id="50203_0" index="0" disallow="bus rail_fast" speed="36.11" length="183.10" width="3.44" customShape="1" shape="18.52,11.81 18.15,14.75 17.09,19.56 15.20,26.10 13.01,32.81 9.17,44.60 4.03,59.78 -0.80,74.30 -6.64,89.70 -11.91,102.96 -17.52,117.33 -23.45,132.55 -30.34,148.19 -36.99,163.74 -41.60,174.30 -45.25,183.01"/>
    </edge>
    <edge id="50205" from="11" to="12" priority="1" spreadType="center" length="181.29">
        <lane id="50205_0" index="0" disallow="bus rail_fast" speed="36.11" length="181.29" width="3.45" customShape="1" shape="-48.48,181.13 -43.70,169.76 -37.20,154.57 -29.71,137.47 -23.73,123.03 -17.72,107.97 -12.92,94.64 -7.94,81.49 -1.97,65.16 2.36,51.82 8.27,34.07 11.09,26.50 12.76,21.40 14.03,17.27 14.21,16.35"/>
    </edge>
    <edge id="50207" from="12" to="3" priority="1" spreadType="center" length="17.93">
        <lane id="50207_0" index="0" disallow="bus truck rail_fast" speed="36.11" length="17.93" width="4.11" customShape="1" shape="11.42,5.18 11.22,5.13"/>
    </edge>
    <edge id="50209" from="2" to="9" priority="1" spreadType="center" length="24.96">
        <lane id="50209_0" index="0" disallow="bus truck rail_fast" speed="36.11" length="24.96" width="3.00" customShape="1" shape="16.73,2.49 16.85,2.65"/>
    </edge>
    <edge id="50211" from="2" to="5" priority="1" spreadType="center" length="26.76">
        <lane id="50211_0" index="0" disallow="rail_fast" speed="36.11" length="26.76" width="3.69" customShape="1" shape="15.09,-1.00 15.29,-1.02"/>
    </edge>
    <edge id="50213" from="8" to="3" priority="1" spreadType="center" length="28.32">
        <lane id="50213_0" index="0" disallow="rail_fast" speed="36.11" length="28.32" width="3.52" customShape="1" shape="16.05,2.81 15.80,2.84"/>
    </edge>
    <edge id="50215" from="8" to="9" priority="1" spreadType="center" length="18.41">
        <lane id="50215_0" index="0" disallow="bus truck rail_fast" speed="36.11" length="18.41" width="3.44" customShape="1" shape="18.74,4.51 18.74,4.71"/>
    </edge>
    <edge id="50217" from="12" to="5" priority="1" spreadType="center" length="24.07">
        <lane id="50217_0" index="0" disallow="bus truck rail_fast" speed="36.11" length="24.07" width="3.96" customShape="1" shape="15.18,2.19 15.32,2.04"/>
    </edge>

    <junction id="1" type="dead_end" x="-130.86" y="-36.65" incLanes="" intLanes="" shape="-131.43,-35.43 -130.28,-37.87"/>
    <junction id="10" type="dead_end" x="-45.25" y="183.01" incLanes="50203_0" intLanes="" shape="-43.67,183.67 -46.84,182.34"/>
    <junction id="11" type="dead_end" x="-48.48" y="181.13" incLanes="" intLanes="" shape="-46.89,181.80 -50.07,180.46"/>
    <junction id="12" type="priority" x="14.64" y="11.52" incLanes="50205_0" intLanes=":12_0_0 :12_1_0" shape="19.14,1.12 14.27,0.47 13.18,1.68 12.47,2.09 11.65,2.38 10.71,2.53 9.76,2.57 4.58,5.96 7.47,6.54 9.73,7.58 11.36,9.07 12.36,11.02 12.72,13.43 12.46,16.30 15.95,16.40 16.67,12.11 17.29,8.57 17.97,5.08 18.62,2.35">
        <request index="0" response="00" foes="00" cont="0"/>
        <request index="1" response="00" foes="00" cont="0"/>
    </junction>
    <junction id="2" type="priority" x="1.94" y="-0.08" incLanes="50195_0" intLanes=":2_0_0 :2_1_0" shape="16.67,6.03 17.92,1.68 17.48,1.09 17.48,0.86 17.62,0.69 17.89,0.56 18.31,0.48 18.15,-3.22 10.68,-2.29 5.15,-1.58 0.58,-1.11 -4.00,-0.88 -9.56,-0.92 -17.06,-1.24 -16.95,1.47 -6.80,2.08 1.53,2.75 8.04,3.48 12.73,4.27 15.61,5.12">
        <request index="0" response="00" foes="00" cont="0"/>
        <request index="1" response="00" foes="00" cont="0"/>
    </junction>
    <junction id="3" type="priority" x="1.34" y="3.77" incLanes="50207_0 50213_0" intLanes=":3_0_0 :3_1_0" shape="12.50,11.44 15.44,5.96 15.34,5.24 15.41,4.98 15.57,4.78 15.80,4.64 16.11,4.58 15.99,1.05 9.45,1.77 4.61,2.33 0.61,2.70 -3.39,2.85 -8.25,2.77 -14.81,2.42 -14.78,4.95 -6.77,5.59 -0.14,6.41 5.10,7.41 8.95,8.57 11.42,9.92">
        <request index="0" response="00" foes="10" cont="0"/>
        <request index="1" response="01" foes="01" cont="0"/>
    </junction>
    <junction id="4" type="dead_end" x="-131.99" y="-33.89" incLanes="50197_0" intLanes="" shape="-132.53,-32.74 -131.46,-35.03"/>
    <junction id="5" type="priority" x="28.48" y="-3.23" incLanes="50211_0 50217_0" intLanes=":5_0_0 :5_1_0" shape="29.05,-1.42 28.23,-5.11 24.77,-4.36 22.20,-3.83 20.07,-3.46 17.93,-3.17 15.33,-2.87 11.81,-2.49 12.48,1.14 13.22,1.21 13.41,1.36 13.50,1.60 13.46,1.93 13.32,2.33 16.46,7.67 16.80,5.67 17.85,3.86 19.59,2.25 22.04,0.84 25.19,-0.39">
        <request index="0" response="00" foes="10" cont="0"/>
        <request index="1" response="01" foes="01" cont="0"/>
    </junction>
    <junction id="6" type="dead_end" x="100.51" y="-11.97" incLanes="50199_0" intLanes="" shape="100.57,-13.86 100.44,-10.07"/>
    <junction id="7" type="dead_end" x="100.34" y="-8.28" incLanes="" intLanes="" shape="100.38,-10.08 100.30,-6.49"/>
    <junction id="8" type="priority" x="29.44" y="0.65" incLanes="50201_0" intLanes=":8_0_0 :8_1_0" shape="30.10,2.35 29.38,-1.17 26.45,-0.56 24.27,-0.12 22.48,0.22 20.67,0.50 18.47,0.78 15.49,1.10 16.11,4.58 16.81,4.66 17.03,4.83 17.18,5.09 17.23,5.43 17.21,5.87 20.29,10.54 21.46,6.86 22.83,5.38 24.73,4.13 27.15,3.12">
        <request index="0" response="00" foes="00" cont="0"/>
        <request index="1" response="00" foes="00" cont="0"/>
    </junction>
    <junction id="9" type="priority" x="18.54" y="11.66" incLanes="50215_0 50209_0" intLanes=":9_0_0 :9_1_0" shape="24.73,3.42 19.69,1.50 19.01,1.89 18.67,1.93 18.32,1.85 17.96,1.67 17.61,1.38 13.60,2.22 15.81,4.04 16.49,5.44 16.88,7.17 16.99,9.22 16.81,11.60 20.22,12.03 20.62,9.61 21.17,7.58 21.85,5.95 22.67,4.72 23.63,3.87">
        <request index="0" response="00" foes="10" cont="0"/>
        <request index="1" response="01" foes="01" cont="0"/>
    </junction>

    <connection from="50195" to="50211" fromLane="0" toLane="0" contPos="-4.00" via=":2_0_0" dir="R" state="M"/>
    <connection from="50195" to="50209" fromLane="0" toLane="0" contPos="-4.00" via=":2_1_0" dir="s" state="M"/>
    <connection from="50201" to="50215" fromLane="0" toLane="0" contPos="-4.00" via=":8_0_0" dir="R" state="M"/>
    <connection from="50201" to="50213" fromLane="0" toLane="0" contPos="-4.00" via=":8_1_0" dir="s" state="M"/>
    <connection from="50205" to="50207" fromLane="0" toLane="0" contPos="-4.00" via=":12_0_0" dir="r" state="M"/>
    <connection from="50205" to="50217" fromLane="0" toLane="0" contPos="-4.00" via=":12_1_0" dir="s" state="M"/>
    <connection from="50207" to="50197" fromLane="0" toLane="0" contPos="-4.00" via=":3_0_0" dir="s" state="M"/>
    <connection from="50209" to="50203" fromLane="0" toLane="0" contPos="-4.00" via=":9_1_0" dir="l" state="m"/>
    <connection from="50211" to="50199" fromLane="0" toLane="0" contPos="-4.00" via=":5_0_0" dir="s" state="M"/>
    <connection from="50213" to="50197" fromLane="0" toLane="0" contPos="-4.00" via=":3_1_0" dir="s" state="m"/>
    <connection from="50215" to="50203" fromLane="0" toLane="0" contPos="-4.00" via=":9_0_0" dir="s" state="M"/>
    <connection from="50217" to="50199" fromLane="0" toLane="0" contPos="-4.00" via=":5_1_0" dir="s" state="m"/>

    <connection from=":12_0" to="50207" fromLane="0" toLane="0" dir="r" state="M"/>
    <connection from=":12_1" to="50217" fromLane="0" toLane="0" dir="s" state="M"/>
    <connection from=":2_0" to="50211" fromLane="0" toLane="0" dir="R" state="M"/>
    <connection from=":2_1" to="50209" fromLane="0" toLane="0" dir="s" state="M"/>
    <connection from=":3_0" to="50197" fromLane="0" toLane="0" dir="s" state="M"/>
    <connection from=":3_1" to="50197" fromLane="0" toLane="0" dir="s" state="M"/>
    <connection from=":5_0" to="50199" fromLane="0" toLane="0" dir="s" state="M"/>
    <connection from=":5_1" to="50199" fromLane="0" toLane="0" dir="s" state="M"/>
    <connection from=":8_0" to="50215" fromLane="0" toLane="0" dir="R" state="M"/>
    <connection from=":8_1" to="50213" fromLane="0" toLane="0" dir="s" state="M"/>
    <connection from=":9_0" to="50203" fromLane="0" toLane="0" dir="s" state="M"/>
    <connection from=":9_1" to="50203" fromLane="0" toLane="0" dir="l" state="M"/>

</net>
