<routes>
	<vehicle depart="0.1" departLane="0" departPos="10.81501556487975" departSpeed="3.7931642" id="338" type="bicycle">
		<route edges="47974 47828 47760"/>
	</vehicle>
	<vehicle depart="0.1" departLane="0" departPos="41.862325212859545" departSpeed="3.212771e-05" id="30" type="passenger">
		<route edges=":28_0 47831"/>
	</vehicle>
	<vehicle depart="0.1" departLane="0" departPos="34.36151143105456" departSpeed="0.00037370327" id="31" type="passenger">
		<route edges=":28_0 47831"/>
	</vehicle>
	<vehicle depart="0.1" departLane="0" departPos="26.858325104749344" departSpeed="0.002685805" id="34" type="passenger">
		<route edges=":28_0 47831"/>
	</vehicle>
	<vehicle depart="0.1" departLane="0" departPos="56.866197021887004" departSpeed="0.0" id="37" type="passenger">
		<route edges=":28_0 47831"/>
	</vehicle>
	<vehicle depart="0.1" departLane="0" departPos="49.36197537347849" departSpeed="0.0" id="38" type="passenger">
		<route edges=":28_0 47831"/>
	</vehicle>
	<vehicle depart="0.1" departLane="0" departPos="12.181115604254945" departSpeed="8.2995042" id="323" type="passenger">
		<route edges=":28_1 47825"/>
	</vehicle>
	<vehicle depart="0.1" departLane="1" departPos="15.492877929837741" departSpeed="11.078043" id="325" type="passenger">
		<route edges=":29_3 47756 47764 47825"/>
	</vehicle>
	<vehicle depart="0.1" departLane="1" departPos="24.787643276557574" departSpeed="11.693881" id="331" type="passenger">
		<route edges="47760 47756 47764"/>
	</vehicle>
	<vehicle depart="0.1" departLane="0" departPos="11.293826392419332" departSpeed="8.5324772" id="334" type="passenger">
		<route edges="47828 47760 47756 47764 47825"/>
	</vehicle>
</routes>
