<routes>
	<vehicle depart="0.1" departLane="0" departPos="23.180910991919628" departSpeed="2.1827479" id="312" type="passenger">
		<route edges=":59_5 23212 23215"/>
	</vehicle>
	<vehicle depart="0.1" departLane="0" departPos="35.5215233932967" departSpeed="4.0047859" id="324" type="passenger">
		<route edges=":61_3 23209 23212"/>
	</vehicle>
	<vehicle depart="0.1" departLane="0" departPos="2.5" departSpeed="2.7828681" id="328" type="passenger">
		<route edges=":61_1 23603"/>
	</vehicle>
	<vehicle depart="0.1" departLane="0" departPos="28.603296950973373" departSpeed="1.7692779" id="329" type="passenger">
		<route edges="23208 23603"/>
	</vehicle>
	<vehicle depart="0.1" departLane="0" departPos="32.04680289850566" departSpeed="0.32682347" id="332" type="passenger">
		<route edges="23209 23212"/>
	</vehicle>
	<vehicle depart="0.1" departLane="0" departPos="23.55645281329269" departSpeed="0.92473038" id="334" type="passenger">
		<route edges="23209 23212"/>
	</vehicle>
	<vehicle depart="0.1" departLane="0" departPos="19.453134925467115" departSpeed="6.1118785" id="336" type="passenger">
		<route edges=":56_0 23784 23208"/>
	</vehicle>
	<vehicle depart="0.1" departLane="0" departPos="13.913620394607378" departSpeed="1.8602776" id="337" type="passenger">
		<route edges="23209 23212"/>
	</vehicle>
	<vehicle depart="0.1" departLane="0" departPos="37.363359112422316" departSpeed="0.10248366" id="317" type="motorcycle">
		<route edges="23209 23212"/>
	</vehicle>
	<vehicle depart="0.1" departLane="0" departPos="32.15603533995481" departSpeed="0.25770705" id="320" type="motorcycle">
		<route edges="23209 23212"/>
	</vehicle>
</routes>
