<routes>
	<vehicle depart="0.1" departLane="0" departPos="120.35302405893464" departSpeed="6.9077075" id="38" type="bicycle">
		<route edges="308 361"/>
	</vehicle>
	<vehicle depart="0.1" departLane="0" departPos="16.33252463510259" departSpeed="6.9083654" id="332" type="bicycle">
		<route edges="357"/>
	</vehicle>
	<vehicle depart="0.1" departLane="0" departPos="41.82500070385531" departSpeed="0.00073638272" id="329" type="bus">
		<route edges="358 391"/>
	</vehicle>
	<vehicle depart="0.1" departLane="0" departPos="93.27828337853997" departSpeed="13.811817" id="330" type="bus">
		<route edges="361 391"/>
	</vehicle>
	<vehicle depart="0.1" departLane="0" departPos="149.17013815820712" departSpeed="5.3035314" id="33" type="passenger">
		<route edges="360 311"/>
	</vehicle>
	<vehicle depart="0.1" departLane="0" departPos="171.253575654004" departSpeed="0.0" id="35" type="passenger">
		<route edges="361 391"/>
	</vehicle>
	<vehicle depart="0.1" departLane="0" departPos="367.8326366493394" departSpeed="6.9476175" id="36" type="passenger">
		<route edges="308 361"/>
	</vehicle>
	<vehicle depart="0.1" departLane="0" departPos="60.693074189453576" departSpeed="0.0" id="37" type="passenger">
		<route edges="358 391"/>
	</vehicle>
	<vehicle depart="0.1" departLane="0" departPos="255.32745172478553" departSpeed="22.904146" id="39" type="passenger">
		<route edges="308 361"/>
	</vehicle>
	<vehicle depart="0.1" departLane="0" departPos="53.54985819106053" departSpeed="1.0108243e-05" id="312" type="passenger">
		<route edges="358 391"/>
	</vehicle>
	<vehicle depart="0.1" departLane="0" departPos="60.090507262846884" departSpeed="12.356167" id="313" type="passenger">
		<route edges="308 361"/>
	</vehicle>
	<vehicle depart="0.1" departLane="0" departPos="397.8887864609348" departSpeed="0.0" id="316" type="passenger">
		<route edges="308 361"/>
	</vehicle>
	<vehicle depart="0.1" departLane="0" departPos="385.98726345180245" departSpeed="3.5598597" id="317" type="passenger">
		<route edges="308 361"/>
	</vehicle>
	<vehicle depart="0.1" departLane="0" departPos="164.05750044123704" departSpeed="2.3197369" id="318" type="passenger">
		<route edges="360 311"/>
	</vehicle>
	<vehicle depart="0.1" departLane="0" departPos="162.31437762521387" departSpeed="1.8749629" id="319" type="passenger">
		<route edges="361 391"/>
	</vehicle>
	<vehicle depart="0.1" departLane="0" departPos="146.31514367140454" departSpeed="5.6464946" id="324" type="passenger">
		<route edges="361 391"/>
	</vehicle>
	<vehicle depart="0.1" departLane="0" departPos="295.3799586581089" departSpeed="20.948453" id="325" type="passenger">
		<route edges="308 361"/>
	</vehicle>
	<vehicle depart="0.1" departLane="0" departPos="92.53236600176524" departSpeed="21.085736" id="333" type="passenger">
		<route edges="307 1161"/>
	</vehicle>
	<vehicle depart="0.1" departLane="0" departPos="27.180355239475652" departSpeed="0.0035378433" id="335" type="passenger">
		<route edges="358 391"/>
	</vehicle>
	<vehicle depart="0.1" departLane="0" departPos="50.88091728687539" departSpeed="15.315096" id="336" type="passenger">
		<route edges="361 391"/>
	</vehicle>
	<vehicle depart="0.1" departLane="0" departPos="29.371292724874305" departSpeed="14.943215" id="340" type="passenger">
		<route edges="307 1161"/>
	</vehicle>
	<vehicle depart="0.1" departLane="0" departPos="19.925547261940633" departSpeed="0.012894095" id="342" type="passenger">
		<route edges="358 391"/>
	</vehicle>
	<vehicle depart="0.1" departLane="0" departPos="9.21314947127362" departSpeed="9.6423159" id="343" type="passenger">
		<route edges="361 391"/>
	</vehicle>
	<vehicle depart="0.1" departLane="0" departPos="18.444228789455558" departSpeed="11.238372" id="344" type="passenger">
		<route edges="360 311"/>
	</vehicle>
	<vehicle depart="0.1" departLane="0" departPos="4.523244417396217" departSpeed="7.3450825" id="346" type="passenger">
		<route edges=":29_0 361 391"/>
	</vehicle>
	<vehicle depart="0.1" departLane="0" departPos="8.96727131343333" departSpeed="7.7203607" id="347" type="passenger">
		<route edges=":32_4 360 311"/>
	</vehicle>
	<vehicle depart="0.1" departLane="0" departPos="37.17424767763486" departSpeed="13.098577" id="348" type="passenger">
		<route edges="308 361"/>
	</vehicle>
	<vehicle depart="0.1" departLane="0" departPos="59.99152298200109" departSpeed="7.3399672" id="350" type="passenger">
		<route edges="310 361 391"/>
	</vehicle>
	<vehicle depart="0.1" departLane="0" departPos="64.04683031043632" departSpeed="8.9817816" id="351" type="passenger">
		<route edges="390 357"/>
	</vehicle>
	<vehicle depart="0.1" departLane="0" departPos="45.66133497445969" departSpeed="7.1751868" id="352" type="passenger">
		<route edges="310 361 391"/>
	</vehicle>
	<vehicle depart="0.1" departLane="0" departPos="48.37976852762384" departSpeed="8.6461118" id="353" type="passenger">
		<route edges="390 357"/>
	</vehicle>
	<vehicle depart="0.1" departLane="0" departPos="32.26035409127584" departSpeed="6.7642116" id="356" type="passenger">
		<route edges="310 307 1161"/>
	</vehicle>
	<vehicle depart="0.1" departLane="0" departPos="33.074774343486226" departSpeed="8.2588111" id="359" type="passenger">
		<route edges="390 357"/>
	</vehicle>
	<vehicle depart="0.1" departLane="0" departPos="20.306848720195593" departSpeed="5.8888482" id="362" type="passenger">
		<route edges="310 307 1161"/>
	</vehicle>
	<vehicle depart="0.1" departLane="0" departPos="19.021326135394034" departSpeed="7.2626262" id="363" type="passenger">
		<route edges="390 357"/>
	</vehicle>
	<vehicle depart="0.1" departLane="0" departPos="10.245402678516978" departSpeed="4.6374632" id="365" type="passenger">
		<route edges="310 307 1161"/>
	</vehicle>
	<vehicle depart="0.1" departLane="0" departPos="8.552077037204057" departSpeed="4.2364596" id="366" type="passenger">
		<route edges="390 357"/>
	</vehicle>
	<vehicle depart="0.1" departLane="0" departPos="46.61671199984339" departSpeed="0.00010862689" id="323" type="motorcycle">
		<route edges="358 391"/>
	</vehicle>
	<vehicle depart="0.1" departLane="0" departPos="70.29259173816865" departSpeed="0.0" id="30" type="truck">
		<route edges="358 391"/>
	</vehicle>
	<vehicle depart="0.1" departLane="0" departPos="80.32273875668473" departSpeed="13.127098" id="339" type="truck">
		<route edges="308 361"/>
	</vehicle>
</routes>
