<!-- generated on Tue Feb  9 22:21:46 2021 by Eclipse SUMO netconvert Version 1.8.0
<configuration xmlns:xsi="http://www.w3.org/2001/XMLSchema-instance" xsi:noNamespaceSchemaLocation="http://sumo.dlr.de/xsd/netconvertConfiguration.xsd">

    <input>
        <node-files value="./converted_scenarios/scenario-factory/HRV_Pula-17_1_I-1-1/HRV_Pula-17_1_I-1-1.nod.xml"/>
        <edge-files value="./converted_scenarios/scenario-factory/HRV_Pula-17_1_I-1-1/HRV_Pula-17_1_I-1-1.edg.xml"/>
        <connection-files value="./converted_scenarios/scenario-factory/HRV_Pula-17_1_I-1-1/HRV_Pula-17_1_I-1-1.con.xml"/>
        <tllogic-files value="./converted_scenarios/scenario-factory/HRV_Pula-17_1_I-1-1/HRV_Pula-17_1_I-1-1.tll.xml"/>
        <type-files value="/home/zen/commonroad-interactive-benchmarks/install/commonroad-map-tool/crmapconverter/sumo_map/templates/DEU.typ.xml"/>
    </input>

    <output>
        <output-file value="./converted_scenarios/scenario-factory/HRV_Pula-17_1_I-1-1/HRV_Pula-17_1_I-1-1.net.xml"/>
    </output>

    <processing>
        <geometry.remove.keep-edges.explicit value="true"/>
        <geometry.avoid-overlap value="true"/>
        <offset.disable-normalization value="true"/>
    </processing>

    <junctions>
        <no-turnarounds value="true"/>
        <junctions.internal-link-detail value="20"/>
    </junctions>

    <report>
        <aggregate-warnings value="5"/>
    </report>

    <random_number>
        <seed value="1234"/>
    </random_number>

</configuration>
--><net xmlns:xsi="http://www.w3.org/2001/XMLSchema-instance" version="1.6" junctionCornerDetail="5" junctionLinkDetail="20" limitTurnSpeed="5.50" xsi:noNamespaceSchemaLocation="http://sumo.dlr.de/xsd/net_file.xsd">

    <location netOffset="0.00,0.00" convBoundary="556.00,-826.81,747.30,-604.28" origBoundary="556.00,-826.81,747.30,-604.28" projParameter="!"/>

    <type id="highway.bridleway" priority="1" speed="2.78" allow="pedestrian" oneway="1" width="2.00"/>
    <type id="highway.bus_guideway" priority="1" speed="27.78" allow="bus" oneway="1"/>
    <type id="highway.cycleway" priority="1" speed="8.33" allow="bicycle" oneway="0" width="1.00"/>
    <type id="highway.footway" priority="1" speed="2.78" allow="pedestrian" oneway="1" width="2.00"/>
    <type id="highway.ford" priority="1" speed="2.78" allow="army" oneway="0"/>
    <type id="highway.living_street" priority="2" speed="2.78" disallow="tram rail_urban rail rail_electric rail_fast ship" oneway="0"/>
    <type id="highway.motorway" priority="14" speed="39.44" allow="private emergency authority army vip passenger hov taxi bus coach delivery truck trailer motorcycle evehicle custom1 custom2" oneway="1"/>
    <type id="highway.motorway_link" priority="9" speed="22.22" allow="private emergency authority army vip passenger hov taxi bus coach delivery truck trailer motorcycle evehicle custom1 custom2" oneway="1"/>
    <type id="highway.path" priority="1" speed="2.78" allow="pedestrian bicycle" oneway="0" width="2.00"/>
    <type id="highway.pedestrian" priority="1" speed="2.78" allow="pedestrian" oneway="1" width="2.00"/>
    <type id="highway.primary" priority="12" speed="27.78" disallow="pedestrian tram rail_urban rail rail_electric rail_fast ship" oneway="0"/>
    <type id="highway.primary_link" priority="7" speed="22.22" disallow="pedestrian tram rail_urban rail rail_electric rail_fast ship" oneway="0"/>
    <type id="highway.raceway" priority="15" speed="83.33" allow="vip" oneway="0"/>
    <type id="highway.residential" priority="3" speed="13.89" disallow="pedestrian tram rail_urban rail rail_electric rail_fast ship" oneway="0"/>
    <type id="highway.secondary" priority="11" speed="27.78" disallow="pedestrian tram rail_urban rail rail_electric rail_fast ship" oneway="0"/>
    <type id="highway.secondary_link" priority="6" speed="22.22" disallow="pedestrian tram rail_urban rail rail_electric rail_fast ship" oneway="0"/>
    <type id="highway.service" priority="1" speed="5.56" allow="pedestrian delivery bicycle" oneway="0"/>
    <type id="highway.stairs" priority="1" speed="1.39" allow="pedestrian" oneway="1" width="2.00"/>
    <type id="highway.step" priority="1" speed="1.39" allow="pedestrian" oneway="1" width="2.00"/>
    <type id="highway.steps" priority="1" speed="1.39" allow="pedestrian" oneway="1" width="2.00"/>
    <type id="highway.tertiary" priority="10" speed="22.22" disallow="pedestrian tram rail_urban rail rail_electric rail_fast ship" oneway="0"/>
    <type id="highway.tertiary_link" priority="5" speed="22.22" disallow="pedestrian tram rail_urban rail rail_electric rail_fast ship" oneway="0"/>
    <type id="highway.track" priority="1" speed="5.56" allow="pedestrian motorcycle moped bicycle" oneway="0"/>
    <type id="highway.trunk" priority="13" speed="27.78" disallow="pedestrian bicycle tram rail_urban rail rail_electric rail_fast ship" oneway="0"/>
    <type id="highway.trunk_link" priority="8" speed="22.22" disallow="pedestrian bicycle tram rail_urban rail rail_electric rail_fast ship" oneway="0"/>
    <type id="highway.unclassified" priority="4" speed="13.89" disallow="pedestrian tram rail_urban rail rail_electric rail_fast ship" oneway="0"/>
    <type id="highway.unsurfaced" priority="1" speed="8.33" disallow="tram rail_urban rail rail_electric rail_fast ship" oneway="0"/>
    <type id="railway.highspeed" priority="21" speed="69.44" allow="rail_fast" oneway="1"/>
    <type id="railway.light_rail" priority="19" speed="27.78" allow="rail_urban" oneway="1"/>
    <type id="railway.preserved" priority="16" speed="27.78" allow="rail" oneway="1"/>
    <type id="railway.rail" priority="20" speed="44.44" allow="rail" oneway="1"/>
    <type id="railway.subway" priority="18" speed="27.78" allow="rail_urban" oneway="1"/>
    <type id="railway.tram" priority="17" speed="13.89" allow="tram" oneway="1"/>

    <edge id=":21_0" function="internal">
        <lane id=":21_0_0" index="0" disallow="pedestrian tram rail_urban rail rail_electric rail_fast ship" speed="36.11" length="3.08" width="3.50" shape="664.44,-777.18 663.87,-780.21"/>
    </edge>
    <edge id=":33_0" function="internal">
        <lane id=":33_0_0" index="0" disallow="pedestrian tram rail_urban rail rail_electric rail_fast ship" speed="36.11" length="0.10" width="3.50" shape="679.13,-804.33 679.13,-804.33"/>
    </edge>
    <edge id=":34_0" function="internal">
        <lane id=":34_0_0" index="0" disallow="pedestrian tram rail_urban rail rail_electric rail_fast ship" speed="36.11" length="3.09" width="3.50" shape="667.30,-780.91 667.87,-777.87"/>
    </edge>
    <edge id=":40_0" function="internal">
        <lane id=":40_0_0" index="0" disallow="pedestrian tram rail_urban rail rail_electric rail_fast ship" speed="36.11" length="3.04" width="3.50" shape="681.62,-801.41 678.73,-800.48"/>
    </edge>
    <edge id=":49_0" function="internal">
        <lane id=":49_0_0" index="0" disallow="pedestrian tram rail_urban rail rail_electric rail_fast ship" speed="36.11" length="38.78" width="3.50" shape="621.48,-678.84 615.06,-694.34 609.49,-707.90 606.90,-714.77"/>
    </edge>
    <edge id=":49_1" function="internal">
        <lane id=":49_1_0" index="0" disallow="pedestrian tram rail_urban rail rail_electric rail_fast ship" speed="12.33" length="34.38" width="3.50" shape="621.48,-678.84 620.20,-682.61 619.62,-685.19 619.30,-687.81 619.30,-690.45 619.45,-691.76 619.69,-693.06 620.04,-694.33 620.49,-695.57 621.05,-696.77 621.71,-697.91 622.46,-699.00 624.20,-700.98 626.19,-702.72 628.36,-704.22 630.66,-705.52 633.08,-706.65"/>
    </edge>
    <edge id=":49_2" function="internal">
        <lane id=":49_2_0" index="0" disallow="pedestrian tram rail_urban rail rail_electric rail_fast ship" speed="11.34" length="28.89" width="3.50" shape="634.45,-703.43 632.34,-702.44 630.35,-701.33 628.50,-700.05 626.84,-698.60 625.39,-696.93 624.80,-696.08 624.26,-695.15 623.81,-694.19 623.45,-693.19 623.17,-692.16 622.97,-691.10 622.85,-690.06 622.85,-687.83 623.12,-685.62 623.62,-683.43 624.73,-680.13"/>
    </edge>
    <edge id=":49_3" function="internal">
        <lane id=":49_3_0" index="0" disallow="pedestrian tram rail_urban rail rail_electric rail_fast ship" speed="11.89" length="34.64" width="3.50" shape="634.45,-703.43 630.68,-702.03 628.11,-701.35 625.48,-700.92 622.82,-700.82 621.49,-700.91 620.18,-701.11 618.88,-701.42 617.62,-701.84 616.41,-702.39 615.25,-703.04 614.16,-703.80 613.14,-704.66 612.19,-705.59 610.50,-707.65 609.09,-709.90 607.90,-712.28 606.90,-714.77"/>
    </edge>
    <edge id=":49_4" function="internal">
        <lane id=":49_4_0" index="0" disallow="pedestrian tram rail_urban rail rail_electric rail_fast ship" speed="10.86" length="28.74" width="3.50" shape="610.23,-715.86 611.05,-713.81 612.07,-711.77 613.26,-709.88 614.68,-708.15 615.43,-707.42 616.25,-706.74 617.12,-706.14 618.04,-705.62 619.00,-705.19 620.01,-704.86 621.04,-704.61 622.10,-704.46 623.15,-704.39 625.38,-704.48 627.60,-704.84 629.79,-705.42 633.08,-706.65"/>
    </edge>
    <edge id=":49_5" function="internal">
        <lane id=":49_5_0" index="0" disallow="pedestrian tram rail_urban rail rail_electric rail_fast ship" speed="36.11" length="38.56" width="3.50" shape="610.23,-715.86 612.76,-709.14 618.32,-695.63 624.73,-680.13"/>
    </edge>
    <edge id=":50_0" function="internal">
        <lane id=":50_0_0" index="0" disallow="pedestrian tram rail_urban rail rail_electric rail_fast ship" speed="36.11" length="39.10" width="3.50" shape="698.06,-730.51 680.08,-722.85 662.09,-715.19"/>
    </edge>
    <edge id=":50_1" function="internal">
        <lane id=":50_1_0" index="0" disallow="pedestrian tram rail_urban rail rail_electric rail_fast ship" speed="11.67" length="35.79" width="3.50" shape="698.06,-730.51 695.60,-729.55 693.06,-728.77 690.41,-728.22 687.70,-727.99 686.27,-728.02 684.87,-728.18 683.46,-728.47 682.09,-728.92 680.76,-729.51 679.51,-730.24 678.35,-731.11 677.30,-732.08 676.36,-733.14 675.52,-734.26 674.76,-735.46 673.55,-737.86 672.60,-740.39 671.58,-744.19"/>
    </edge>
    <edge id=":50_2" function="internal">
        <lane id=":50_2_0" index="0" disallow="pedestrian tram rail_urban rail rail_electric rail_fast ship" speed="10.63" length="29.47" width="3.50" shape="675.00,-744.94 675.88,-741.65 676.68,-739.53 677.70,-737.51 678.30,-736.55 678.98,-735.64 679.74,-734.80 680.57,-734.03 681.47,-733.35 682.45,-732.78 683.49,-732.31 684.56,-731.97 685.67,-731.73 686.80,-731.61 687.93,-731.58 690.19,-731.78 692.41,-732.24 694.58,-732.90 696.69,-733.73"/>
    </edge>
    <edge id=":50_3" function="internal">
        <lane id=":50_3_0" index="0" disallow="pedestrian tram rail_urban rail rail_electric rail_fast ship" speed="13.43" length="35.74" width="3.50" shape="675.00,-744.94 675.65,-741.30 675.99,-737.62 675.94,-733.92 675.65,-731.47 675.11,-729.07 674.31,-726.74 673.23,-724.52 671.88,-722.46 670.27,-720.60 668.45,-718.94 666.45,-717.49 664.32,-716.25 662.09,-715.19"/>
    </edge>
    <edge id=":50_4" function="internal">
        <lane id=":50_4_0" index="0" disallow="pedestrian tram rail_urban rail rail_electric rail_fast ship" speed="12.51" length="30.88" width="3.50" shape="660.70,-718.40 662.67,-719.33 664.50,-720.41 666.21,-721.65 667.74,-723.07 669.08,-724.65 670.21,-726.39 671.10,-728.26 671.76,-730.25 672.20,-732.31 672.44,-734.42 672.47,-737.68 672.16,-740.94 671.58,-744.19"/>
    </edge>
    <edge id=":50_5" function="internal">
        <lane id=":50_5_0" index="0" disallow="pedestrian tram rail_urban rail rail_electric rail_fast ship" speed="36.11" length="39.12" width="3.50" shape="660.70,-718.40 678.71,-726.07 696.69,-733.73"/>
    </edge>
    <edge id=":51_0" function="internal">
        <lane id=":51_0_0" index="0" disallow="pedestrian tram rail_urban rail rail_electric rail_fast ship" speed="36.11" length="38.96" width="3.50" shape="655.68,-651.64 638.10,-643.14 620.60,-634.68"/>
    </edge>
    <edge id=":51_1" function="internal">
        <lane id=":51_1_0" index="0" disallow="pedestrian tram rail_urban rail rail_electric rail_fast ship" speed="11.91" length="34.65" width="3.50" shape="655.68,-651.64 651.97,-650.05 649.43,-649.26 646.82,-648.74 644.16,-648.55 642.83,-648.62 641.51,-648.79 640.21,-649.09 638.95,-649.51 637.73,-650.05 636.57,-650.70 635.48,-651.45 634.45,-652.30 632.61,-654.22 631.03,-656.37 629.69,-658.66 628.03,-662.30"/>
    </edge>
    <edge id=":51_2" function="internal">
        <lane id=":51_2_0" index="0" disallow="pedestrian tram rail_urban rail rail_electric rail_fast ship" speed="10.89" length="28.78" width="3.50" shape="631.27,-663.61 632.72,-660.43 633.86,-658.49 635.17,-656.69 636.71,-655.09 637.51,-654.43 638.39,-653.83 639.30,-653.32 640.26,-652.89 641.26,-652.56 642.28,-652.33 643.33,-652.19 644.37,-652.14 646.58,-652.29 648.77,-652.73 650.92,-653.40 654.13,-654.78"/>
    </edge>
    <edge id=":51_3" function="internal">
        <lane id=":51_3_0" index="0" disallow="pedestrian tram rail_urban rail rail_electric rail_fast ship" speed="12.62" length="34.73" width="3.50" shape="631.27,-663.61 631.73,-662.39 632.81,-658.84 633.31,-656.34 633.56,-653.78 633.51,-651.19 633.11,-648.59 632.35,-646.10 631.80,-644.85 631.15,-643.66 629.67,-641.53 627.91,-639.61 625.96,-637.94 623.86,-636.48 620.60,-634.68"/>
    </edge>
    <edge id=":51_4" function="internal">
        <lane id=":51_4_0" index="0" disallow="pedestrian tram rail_urban rail rail_electric rail_fast ship" speed="11.65" length="29.43" width="3.50" shape="619.05,-637.82 621.91,-639.40 623.70,-640.64 625.36,-642.06 626.83,-643.67 628.07,-645.47 628.58,-646.43 629.02,-647.42 629.66,-649.51 629.98,-651.66 630.01,-653.84 629.79,-656.01 629.37,-658.15 628.41,-661.28 628.03,-662.30"/>
    </edge>
    <edge id=":51_5" function="internal">
        <lane id=":51_5_0" index="0" disallow="pedestrian tram rail_urban rail rail_electric rail_fast ship" speed="36.11" length="38.96" width="3.50" shape="619.05,-637.82 636.58,-646.29 654.13,-654.78"/>
    </edge>
    <edge id=":52_0" function="internal">
        <lane id=":52_0_0" index="0" disallow="pedestrian tram rail_urban rail rail_electric rail_fast ship" speed="11.05" length="28.64" width="3.50" shape="603.72,-726.40 602.97,-729.63 602.28,-731.72 601.40,-733.74 600.31,-735.65 599.67,-736.55 598.96,-737.39 598.19,-738.17 597.35,-738.89 596.45,-739.52 595.49,-740.07 594.49,-740.52 593.45,-740.89 592.38,-741.16 590.20,-741.45 588.00,-741.45 585.81,-741.22 583.65,-740.80"/>
    </edge>
    <edge id=":52_1" function="internal">
        <lane id=":52_1_0" index="0" disallow="pedestrian tram rail_urban rail rail_electric rail_fast ship" speed="36.11" length="38.66" width="3.50" shape="603.72,-726.40 603.20,-729.54 602.27,-736.81 601.21,-748.23 600.09,-764.87"/>
    </edge>
    <edge id=":52_2" function="internal">
        <lane id=":52_2_0" index="0" disallow="pedestrian tram rail_urban rail rail_electric rail_fast ship" speed="36.11" length="38.17" width="3.50" shape="603.58,-765.07 604.69,-748.57 605.74,-737.27 606.65,-730.10 607.15,-727.08"/>
    </edge>
    <edge id=":52_3" function="internal">
        <lane id=":52_3_0" index="0" disallow="pedestrian tram rail_urban rail rail_electric rail_fast ship" speed="13.15" length="34.74" width="3.50" shape="603.58,-765.07 603.58,-761.32 603.31,-758.86 602.79,-756.43 601.99,-754.08 600.90,-751.86 599.52,-749.80 597.88,-747.94 596.02,-746.29 593.99,-744.88 591.83,-743.67 588.41,-742.20 584.85,-741.10 583.65,-740.80"/>
    </edge>
    <edge id=":52_4" function="internal">
        <lane id=":52_4_0" index="0" disallow="pedestrian tram rail_urban rail rail_electric rail_fast ship" speed="12.21" length="29.81" width="3.50" shape="582.85,-744.21 583.90,-744.47 587.06,-745.44 590.08,-746.73 591.94,-747.76 593.68,-748.96 595.26,-750.33 596.64,-751.88 597.80,-753.60 598.72,-755.45 599.40,-757.42 599.85,-759.48 600.09,-761.58 600.09,-764.87"/>
    </edge>
    <edge id=":52_5" function="internal">
        <lane id=":52_5_0" index="0" disallow="pedestrian tram rail_urban rail rail_electric rail_fast ship" speed="12.06" length="34.36" width="3.50" shape="582.85,-744.21 585.37,-744.70 587.95,-744.98 590.58,-744.98 593.20,-744.64 594.55,-744.31 595.85,-743.87 597.10,-743.31 598.30,-742.63 599.44,-741.85 600.49,-740.97 601.45,-740.00 602.33,-738.97 603.13,-737.86 604.44,-735.59 605.48,-733.20 606.29,-730.75 607.15,-727.08"/>
    </edge>
    <edge id=":53_0" function="internal">
        <lane id=":53_0_0" index="0" disallow="pedestrian tram rail_urban rail rail_electric rail_fast ship" speed="36.11" length="37.35" width="3.50" shape="603.63,-805.90 603.25,-799.66 602.92,-789.29 602.96,-778.92 603.38,-768.58"/>
    </edge>
    <edge id=":53_1" function="internal">
        <lane id=":53_1_0" index="0" disallow="pedestrian tram rail_urban rail rail_electric rail_fast ship" speed="13.37" length="17.73" width="3.50" shape="603.62,-805.88 603.53,-804.76 603.40,-803.67 603.25,-802.61 603.07,-801.59 602.85,-800.60 602.61,-799.64 602.33,-798.71 602.03,-797.82 601.69,-796.96 601.33,-796.13 600.94,-795.33 600.51,-794.56 600.06,-793.83 599.57,-793.13 599.06,-792.46 598.52,-791.83 597.94,-791.22 597.34,-790.65 596.70,-790.11"/>
    </edge>
    <edge id=":53_2" function="internal">
        <lane id=":53_2_0" index="0" disallow="pedestrian tram rail_urban rail rail_electric rail_fast ship" speed="11.81" length="31.50" width="3.50" shape="578.47,-789.85 583.82,-789.67 586.06,-789.80 588.25,-790.14 590.35,-790.70 592.35,-791.55 593.25,-792.05 594.11,-792.64 594.93,-793.30 595.69,-794.02 596.38,-794.81 597.01,-795.66 597.56,-796.53 598.52,-798.50 599.22,-800.57 599.72,-802.73 600.13,-806.14"/>
    </edge>
    <edge id=":53_3" function="internal">
        <lane id=":53_3_0" index="0" disallow="pedestrian tram rail_urban rail rail_electric rail_fast ship" speed="13.21" length="37.06" width="3.50" shape="578.47,-789.85 582.80,-789.62 586.41,-789.14 588.85,-788.56 591.22,-787.74 593.52,-786.64 595.67,-785.23 597.61,-783.53 599.27,-781.55 600.63,-779.37 601.68,-777.05 602.44,-774.66 602.97,-772.21 603.38,-768.58"/>
    </edge>
    <edge id=":53_4" function="internal">
        <lane id=":53_4_0" index="0" disallow="pedestrian tram rail_urban rail rail_electric rail_fast ship" speed="11.98" length="29.95" width="3.50" shape="599.88,-768.37 599.73,-770.09 599.48,-771.72 599.13,-773.26 598.68,-774.72 598.12,-776.09 597.47,-777.38 596.72,-778.58 595.87,-779.70 594.92,-780.73 593.87,-781.67 592.72,-782.53 591.47,-783.30 590.12,-783.98 588.68,-784.58 587.13,-785.10 585.48,-785.53 583.73,-785.87 581.88,-786.13 579.94,-786.30"/>
    </edge>
    <edge id=":53_5" function="internal">
        <lane id=":53_5_0" index="0" disallow="pedestrian tram rail_urban rail rail_electric rail_fast ship" speed="36.11" length="37.81" width="3.50" shape="599.88,-768.35 599.47,-778.84 599.42,-789.34 599.76,-799.83 600.13,-806.14"/>
    </edge>

    <edge id="14015" from="49" to="51" priority="3" type="highway.residential" spreadType="center" length="17.79" shape="623.49,-700.41 636.49,-651.19">
        <lane id="14015_0" index="0" disallow="pedestrian tram rail_urban rail rail_electric rail_fast ship" speed="36.11" length="17.79" width="3.50" customShape="1" shape="624.73,-680.13 628.00,-671.87 631.28,-663.59"/>
    </edge>
    <edge id="14016" from="51" to="49" priority="3" type="highway.residential" spreadType="center" length="17.81" shape="633.11,-650.30 620.11,-699.52">
        <lane id="14016_0" index="0" disallow="pedestrian tram rail_urban rail rail_electric rail_fast ship" speed="36.11" length="17.81" width="3.50" customShape="1" shape="628.03,-662.30 624.75,-670.58 621.47,-678.86"/>
    </edge>
    <edge id="14042" from="43" to="53" priority="3" type="highway.residential" spreadType="center" length="2.17" shape="576.30,-789.96 597.89,-789.47">
        <lane id="14042_0" index="0" disallow="pedestrian tram rail_urban rail rail_electric rail_fast ship" speed="36.11" length="2.17" width="3.50" customShape="1" shape="576.30,-789.96 578.47,-789.85"/>
    </edge>
    <edge id="14107" from="27" to="52" priority="3" type="highway.residential" spreadType="center" length="11.10" shape="572.05,-741.67 596.63,-746.47">
        <lane id="14107_0" index="0" disallow="pedestrian tram rail_urban rail rail_electric rail_fast ship" speed="36.11" length="11.10" width="3.50" customShape="1" shape="572.05,-741.67 577.45,-742.94 582.86,-744.21"/>
    </edge>
    <edge id="14108" from="52" to="19" priority="3" type="highway.residential" spreadType="center" length="11.09" shape="597.30,-743.05 572.85,-738.26">
        <lane id="14108_0" index="0" disallow="pedestrian tram rail_urban rail rail_electric rail_fast ship" speed="36.11" length="11.09" width="3.50" customShape="1" shape="583.65,-740.80 578.25,-739.53 572.85,-738.26"/>
    </edge>
    <edge id="14110" from="51" to="36" priority="3" type="highway.residential" spreadType="center" length="70.00" shape="635.69,-649.30 557.55,-604.28">
        <lane id="14110_0" index="0" disallow="pedestrian tram rail_urban rail rail_electric rail_fast ship" speed="36.11" length="70.00" width="3.50" customShape="1" shape="620.60,-634.68 557.55,-604.28"/>
    </edge>
    <edge id="14111" from="45" to="51" priority="3" type="highway.residential" spreadType="center" length="70.03" shape="556.00,-607.42 633.94,-652.33">
        <lane id="14111_0" index="0" disallow="pedestrian tram rail_urban rail rail_electric rail_fast ship" speed="36.11" length="70.03" width="3.50" customShape="1" shape="556.00,-607.42 619.08,-637.84"/>
    </edge>
    <edge id="14113" from="42" to="51" priority="3" type="highway.residential" spreadType="center" length="70.00" shape="718.42,-682.58 635.41,-649.17">
        <lane id="14113_0" index="0" disallow="pedestrian tram rail_urban rail rail_electric rail_fast ship" speed="36.11" length="70.00" width="3.50" customShape="1" shape="718.42,-682.58 713.58,-680.19 655.64,-651.62"/>
    </edge>
    <edge id="14114" from="51" to="35" priority="3" type="highway.residential" spreadType="center" length="70.01" shape="634.10,-652.41 716.92,-685.74">
        <lane id="14114_0" index="0" disallow="pedestrian tram rail_urban rail rail_electric rail_fast ship" speed="36.11" length="70.01" width="3.50" customShape="1" shape="654.13,-654.78 712.04,-683.33 716.92,-685.74"/>
    </edge>
    <edge id="14331" from="50" to="49" priority="3" type="highway.residential" spreadType="center" length="30.04" shape="678.25,-729.66 622.66,-698.44">
        <lane id="14331_0" index="0" disallow="pedestrian tram rail_urban rail rail_electric rail_fast ship" speed="36.11" length="30.04" width="3.50" customShape="1" shape="662.09,-715.19 648.26,-709.30 634.45,-703.42"/>
    </edge>
    <edge id="14332" from="49" to="50" priority="3" type="highway.residential" spreadType="center" length="30.04" shape="620.95,-701.49 676.54,-732.71">
        <lane id="14332_0" index="0" disallow="pedestrian tram rail_urban rail rail_electric rail_fast ship" speed="36.11" length="30.04" width="3.50" customShape="1" shape="633.08,-706.65 646.89,-712.52 660.72,-718.41"/>
    </edge>
    <edge id="14383" from="34" to="50" priority="3" type="highway.residential" spreadType="center" length="33.70" shape="667.55,-779.38 679.06,-731.51">
        <lane id="14383_0" index="0" disallow="pedestrian tram rail_urban rail rail_electric rail_fast ship" speed="36.11" length="33.70" width="3.50" customShape="1" shape="667.87,-777.87 671.27,-762.18 675.00,-744.93"/>
    </edge>
    <edge id="14384" from="50" to="21" priority="3" type="highway.residential" spreadType="center" length="33.75" shape="675.66,-730.69 664.12,-778.69">
        <lane id="14384_0" index="0" disallow="pedestrian tram rail_urban rail rail_electric rail_fast ship" speed="36.11" length="33.75" width="3.50" customShape="1" shape="671.58,-744.19 667.85,-761.44 664.44,-777.18"/>
    </edge>
    <edge id="14386" from="46" to="40" priority="3" type="highway.residential" spreadType="center" length="68.48">
        <lane id="14386_0" index="0" disallow="pedestrian tram rail_urban rail rail_electric rail_fast ship" speed="36.11" length="68.48" width="3.50" customShape="1" shape="747.30,-820.79 733.75,-816.79 681.62,-801.41"/>
    </edge>
    <edge id="14387" from="33" to="39" priority="3" type="highway.residential" spreadType="center" length="70.00">
        <lane id="14387_0" index="0" disallow="pedestrian tram rail_urban rail rail_electric rail_fast ship" speed="36.11" length="70.00" width="3.50" customShape="1" shape="679.13,-804.33 732.76,-820.15 746.27,-824.14"/>
    </edge>
    <edge id="14471" from="41" to="50" priority="3" type="highway.residential" spreadType="center" length="46.36" shape="740.70,-748.66 677.82,-729.47">
        <lane id="14471_0" index="0" disallow="pedestrian tram rail_urban rail rail_electric rail_fast ship" speed="36.11" length="46.36" width="3.50" customShape="1" shape="740.70,-748.66 719.38,-739.59 698.04,-730.50"/>
    </edge>
    <edge id="14472" from="50" to="20" priority="3" type="highway.residential" spreadType="center" length="46.34" shape="676.79,-732.82 739.33,-751.88">
        <lane id="14472_0" index="0" disallow="pedestrian tram rail_urban rail rail_electric rail_fast ship" speed="36.11" length="46.34" width="3.50" customShape="1" shape="696.69,-733.73 718.01,-742.81 739.33,-751.88"/>
    </edge>
    <edge id="14476" from="52" to="49" priority="3" type="highway.residential" spreadType="center" length="11.65" shape="598.34,-745.64 623.33,-700.82">
        <lane id="14476_0" index="0" disallow="pedestrian tram rail_urban rail rail_electric rail_fast ship" speed="36.11" length="11.65" width="3.50" customShape="1" shape="607.15,-727.08 607.55,-725.08 608.64,-720.71 610.22,-715.85"/>
    </edge>
    <edge id="14477" from="49" to="52" priority="3" type="highway.residential" spreadType="center" length="12.08" shape="620.27,-699.11 595.29,-743.94">
        <lane id="14477_0" index="0" disallow="pedestrian tram rail_urban rail rail_electric rail_fast ship" speed="36.11" length="12.08" width="3.50" customShape="1" shape="606.90,-714.77 605.28,-719.75 604.13,-724.33 603.72,-726.41"/>
    </edge>
    <edge id="14479" from="53" to="52" priority="3" type="highway.residential" spreadType="center" length="3.55" shape="599.46,-787.77 598.59,-744.70">
        <lane id="14479_0" index="0" disallow="pedestrian tram rail_urban rail rail_electric rail_fast ship" speed="36.11" length="3.55" width="3.50" customShape="1" shape="603.38,-768.58 603.48,-766.80 603.58,-765.04"/>
    </edge>
    <edge id="14480" from="52" to="53" priority="3" type="highway.residential" spreadType="center" length="3.51" shape="595.09,-744.77 595.97,-787.84">
        <lane id="14480_0" index="0" disallow="pedestrian tram rail_urban rail rail_electric rail_fast ship" speed="36.11" length="3.51" width="3.50" customShape="1" shape="600.09,-764.87 599.99,-766.60 599.88,-768.37"/>
    </edge>
    <edge id="14482" from="44" to="53" priority="3" type="highway.residential" spreadType="center" length="20.74" shape="605.07,-826.57 599.43,-787.40">
        <lane id="14482_0" index="0" disallow="pedestrian tram rail_urban rail rail_electric rail_fast ship" speed="36.11" length="20.74" width="3.50" customShape="1" shape="605.07,-826.57 604.35,-816.22 603.62,-805.88"/>
    </edge>
    <edge id="14483" from="53" to="32" priority="3" type="highway.residential" spreadType="center" length="20.72" shape="595.97,-787.90 601.58,-826.81">
        <lane id="14483_0" index="0" disallow="pedestrian tram rail_urban rail rail_electric rail_fast ship" speed="36.11" length="20.72" width="3.50" customShape="1" shape="600.13,-806.14 600.86,-816.46 601.58,-826.81"/>
    </edge>
    <edge id="17696" from="21" to="33" priority="3" type="highway.residential" spreadType="center" length="31.99">
        <lane id="17696_0" index="0" disallow="pedestrian tram rail_urban rail rail_electric rail_fast ship" speed="36.11" length="31.99" width="3.50" customShape="1" shape="663.87,-780.21 663.49,-782.51 663.34,-785.08 663.43,-787.66 663.83,-790.21 664.57,-792.68 665.08,-793.86 665.68,-795.00 666.37,-796.09 667.15,-797.12 668.92,-798.99 670.95,-800.59 673.15,-801.93 675.48,-803.03 679.13,-804.33"/>
    </edge>
    <edge id="17709" from="40" to="34" priority="3" type="highway.residential" spreadType="center" length="25.25">
        <lane id="17709_0" index="0" disallow="pedestrian tram rail_urban rail rail_electric rail_fast ship" speed="36.11" length="25.25" width="3.50" customShape="1" shape="678.73,-800.48 676.93,-799.84 674.95,-798.90 673.10,-797.77 671.41,-796.45 669.94,-794.89 669.33,-794.07 668.77,-793.19 668.28,-792.26 667.88,-791.33 667.26,-789.27 666.93,-787.14 666.86,-784.96 666.99,-782.77 667.30,-780.91"/>
    </edge>
    <edge id="18345" from="53" to="54" priority="3" type="highway.residential" spreadType="center" length="0.20" shape="597.87,-785.99 581.38,-786.21">
        <lane id="18345_0" index="0" disallow="pedestrian tram rail_urban rail rail_electric rail_fast ship" speed="36.11" length="0.20" width="3.50" customShape="1" shape="579.94,-786.30 579.74,-786.31"/>
    </edge>
    <edge id="18996" from="53" to="54" priority="3" type="highway.residential" spreadType="center" length="16.16">
        <lane id="18996_0" index="0" disallow="pedestrian tram rail_urban rail rail_electric rail_fast ship" speed="36.11" length="16.16" width="3.50" customShape="1" shape="596.70,-790.11 596.30,-789.78 595.22,-789.05 594.08,-788.41 591.68,-787.40 589.17,-786.72 586.59,-786.33 583.99,-786.17 581.38,-786.21"/>
    </edge>

    <junction id="19" type="dead_end" x="572.85" y="-738.26" incLanes="14108_0" intLanes="" shape="573.25,-736.56 572.45,-739.97" rightOfWay="edgePriority"/>
    <junction id="20" type="dead_end" x="739.33" y="-751.88" incLanes="14472_0" intLanes="" shape="738.64,-753.49 740.01,-750.27" rightOfWay="edgePriority"/>