<routes>
	<vehicle depart="0.1" departLane="0" departPos="54.28536627019244" departSpeed="1.5774161" id="35" type="bicycle">
		<route edges="14113 14016"/>
	</vehicle>
	<vehicle depart="0.1" departLane="0" departPos="19.080389713938946" departSpeed="7.2009451" id="322" type="passenger">
		<route edges=":51_2 14114"/>
	</vehicle>
	<vehicle depart="0.1" departLane="0" departPos="8.38129474037952" departSpeed="2.9396475" id="323" type="passenger">
		<route edges=":51_3 14110"/>
	</vehicle>
	<vehicle depart="0.1" departLane="0" departPos="39.54793860147915" departSpeed="0.58985363" id="327" type="passenger">
		<route edges="14113 14016"/>
	</vehicle>
	<vehicle depart="0.1" departLane="0" departPos="32.13837924752366" departSpeed="0.39965109" id="337" type="passenger">
		<route edges="14113 14016"/>
	</vehicle>
	<vehicle depart="0.1" departLane="0" departPos="65.02425009148992" departSpeed="2.2734726" id="339" type="passenger">
		<route edges="14111 14114"/>
	</vehicle>
	<vehicle depart="0.1" departLane="0" departPos="48.91025826867462" departSpeed="3.616631" id="345" type="passenger">
		<route edges="14111 14114"/>
	</vehicle>
	<vehicle depart="0.1" departLane="0" departPos="38.90645635828796" departSpeed="3.3325805" id="348" type="passenger">
		<route edges="14111 14114"/>
	</vehicle>
	<vehicle depart="0.1" departLane="0" departPos="62.788191873860065" departSpeed="7.411842" id="30" type="truck">
		<route edges="14113 14110"/>
	</vehicle>
	<vehicle depart="0.1" departLane="0" departPos="49.59870464075727" departSpeed="0.86860564" id="315" type="truck">
		<route edges="14113 14016"/>
	</vehicle>
</routes>
