<routes>
	<vehicle depart="0.1" departLane="1" departPos="92.18294222432614" departSpeed="13.479471" id="1" type="passenger">
		<route edges="26 26 27 24"/>
	</vehicle>
	<vehicle depart="0.1" departLane="0" departPos="0" departSpeed="11.599047" id="2" type="passenger">
		<route edges="26 27 24"/>
	</vehicle>
	<vehicle depart="0.1" departLane="0" departPos="0" departSpeed="13.479471" id="3" type="passenger">
		<route edges="26 27 24"/>
	</vehicle>
</routes>
