<routes>
	<vehicle depart="0.1" departLane="0" departPos="23.263028669629378" departSpeed="5.2319788" id="1" type="passenger">
		<route edges="50201 50213 50197"/>
	</vehicle>
	<vehicle depart="0.1" departLane="0" departPos="111.11597029392014" departSpeed="1.1354544" id="2" type="passenger">
		<route edges="50195 50211 50199"/>
	</vehicle>
	<vehicle depart="0.1" departLane="0" departPos="139.5963354011726" departSpeed="2.825921" id="4" type="passenger">
		<route edges="50205 50207 50197"/>
	</vehicle>
	<vehicle depart="0.1" departLane="0" departPos="147.59635989564742" departSpeed="4.8097226" id="5" type="passenger">
		<route edges="50205 50217 50199"/>
	</vehicle>
	<vehicle depart="0.1" departLane="0" departPos="12.029682803591799" departSpeed="3.7168397" id="7" type="passenger">
		<route edges="50201 50213 50197"/>
	</vehicle>
</routes>
