<routes>
	<vehicle depart="0.1" departLane="0" departPos="0" departSpeed="7.3853" id="30" type="passenger">
		<route edges="682 638"/>
	</vehicle>
	<vehicle depart="0.1" departLane="1" departPos="0" departSpeed="12.1437" id="31" type="passenger">
		<route edges="648 692 658 676 706 634"/>
	</vehicle>
	<vehicle depart="0.1" departLane="1" departPos="209.81034213240196" departSpeed="12.8776" id="32" type="passenger">
		<route edges="640 640 706 634"/>
	</vehicle>
	<vehicle depart="0.1" departLane="0" departPos="42.78070217654596" departSpeed="0.0729" id="33" type="passenger">
		<route edges="662 699 699 704 650"/>
	</vehicle>
	<vehicle depart="0.1" departLane="0" departPos="57.89960968127729" departSpeed="0.004" id="34" type="passenger">
		<route edges="662 699 699 704 650"/>
	</vehicle>
	<vehicle depart="0.1" departLane="0" departPos="0" departSpeed="7.2571" id="35" type="passenger">
		<route edges="702 654 682 638"/>
	</vehicle>
	<vehicle depart="0.1" departLane="0" departPos="65.491158957924" departSpeed="17.5559" id="36" type="passenger">
		<route edges="659"/>
	</vehicle>
	<vehicle depart="0.1" departLane="1" departPos="0" departSpeed="2.2676" id="38" type="passenger">
		<route edges="627 671 638"/>
	</vehicle>
	<vehicle depart="0.1" departLane="0" departPos="171.91188593681733" departSpeed="0.0" id="39" type="passenger">
		<route edges="637 680 630 673 658 676 634"/>
	</vehicle>
	<vehicle depart="0.1" departLane="0" departPos="191.4933901425352" departSpeed="12.2225" id="310" type="passenger">
		<route edges="646 702 654 682 638"/>
	</vehicle>
	<vehicle depart="0.1" departLane="0" departPos="0" departSpeed="6.1173" id="311" type="passenger">
		<route edges="691 648 668 627 701 651 683 641 698 650"/>
	</vehicle>
	<vehicle depart="0.1" departLane="1" departPos="48.26735740693633" departSpeed="0.0" id="313" type="passenger">
		<route edges="627 671 638"/>
	</vehicle>
	<vehicle depart="0.1" departLane="1" departPos="14.18771771992773" departSpeed="1.242" id="314" type="passenger">
		<route edges="627 671 638"/>
	</vehicle>
	<vehicle depart="0.1" departLane="0" departPos="82.9533111654645" departSpeed="0.0" id="315" type="passenger">
		<route edges="662 699 699 704 650"/>
	</vehicle>
	<vehicle depart="0.1" departLane="0" departPos="0" departSpeed="5.8149" id="316" type="passenger">
		<route edges="627 701 651 683 683 705 645"/>
	</vehicle>
	<vehicle depart="0.1" departLane="0" departPos="10.645640669630478" departSpeed="3.5142" id="317" type="passenger">
		<route edges="678 668 627 701 651 683 683 705 645"/>
	</vehicle>
	<vehicle depart="0.1" departLane="1" departPos="297.3268368021098" departSpeed="0.0" id="318" type="passenger">
		<route edges="640 706 634"/>
	</vehicle>
	<vehicle depart="0.1" departLane="0" departPos="164.28553269427778" departSpeed="0.135" id="319" type="passenger">
		<route edges="637 680 630 673 658 676 634"/>
	</vehicle>
	<vehicle depart="0.1" departLane="1" departPos="48.26735740693633" departSpeed="0.0041" id="320" type="passenger">
		<route edges="627 671 638"/>
	</vehicle>
	<vehicle depart="0.1" departLane="1" departPos="278.76559025807074" departSpeed="5.8724" id="321" type="passenger">
		<route edges="640 706 634"/>
	</vehicle>
	<vehicle depart="0.1" departLane="1" departPos="257.29473459099154" departSpeed="9.1385" id="322" type="passenger">
		<route edges="640 706 634"/>
	</vehicle>
	<vehicle depart="0.1" departLane="0" departPos="154.53066599923514" departSpeed="2.0526" id="323" type="passenger">
		<route edges="637 680 630 673 658 676 634"/>
	</vehicle>
	<vehicle depart="0.1" departLane="0" departPos="212.52298776161024" departSpeed="7.7605" id="324" type="passenger">
		<route edges="636 691 648 668 627 701 651 683 641 698 650"/>
	</vehicle>
	<vehicle depart="0.1" departLane="0" departPos="193.71360834477224" departSpeed="8.986" id="325" type="passenger">
		<route edges="636 691 648 668 627 701 651 683 641 698 650"/>
	</vehicle>
	<vehicle depart="0.1" departLane="0" departPos="65.41925682418585" departSpeed="0.0005" id="326" type="passenger">
		<route edges="662 699 699 704 650"/>
	</vehicle>
	<vehicle depart="0.1" departLane="0" departPos="202.61036775403625" departSpeed="13.0481" id="327" type="passenger">
		<route edges="635"/>
	</vehicle>
	<vehicle depart="0.1" departLane="0" departPos="72.92996815557242" departSpeed="0.0" id="328" type="passenger">
		<route edges="662 699 699 704 650"/>
	</vehicle>
	<vehicle depart="0.1" departLane="1" departPos="232.29166574280174" departSpeed="11.8782" id="330" type="passenger">
		<route edges="640 706 634"/>
	</vehicle>
	<vehicle depart="0.1" departLane="0" departPos="37.670867908724944" departSpeed="14.3006" id="332" type="passenger">
		<route edges="634"/>
	</vehicle>
	<vehicle depart="0.1" departLane="0" departPos="48.66570533722792" departSpeed="0.0017" id="333" type="passenger">
		<route edges="627 701 651 683 683 705 645"/>
	</vehicle>
	<vehicle depart="0.1" departLane="1" departPos="48.26735740693633" departSpeed="0.3861" id="334" type="passenger">
		<route edges="627 671 638"/>
	</vehicle>
	<vehicle depart="0.1" departLane="1" departPos="48.26735740693633" departSpeed="0.0648" id="335" type="passenger">
		<route edges="627 671 638"/>
	</vehicle>
	<vehicle depart="0.1" departLane="0" departPos="31.154760581755642" departSpeed="13.433" id="336" type="passenger">
		<route edges="659"/>
	</vehicle>
	<vehicle depart="0.1" departLane="1" departPos="185.91954388356396" departSpeed="13.8769" id="337" type="passenger">
		<route edges="640 706 634"/>
	</vehicle>
	<vehicle depart="0.1" departLane="0" departPos="162.53875507047354" departSpeed="11.45" id="338" type="passenger">
		<route edges="635"/>
	</vehicle>
	<vehicle depart="0.1" departLane="0" departPos="0" departSpeed="11.8999" id="339" type="passenger">
		<route edges="646 702 654 682 638"/>
	</vehicle>
	<vehicle depart="0.1" departLane="0" departPos="174.32056078079523" departSpeed="9.951" id="340" type="passenger">
		<route edges="636 691 648 668 627 701 651 683 641 698 650"/>
	</vehicle>
	<vehicle depart="0.1" departLane="0" departPos="0" departSpeed="4.4945" id="341" type="passenger">
		<route edges="655 678 627 701 651 683 683 705 645"/>
	</vehicle>
	<vehicle depart="0.1" departLane="0" departPos="50.357692073156244" departSpeed="0.0203" id="342" type="passenger">
		<route edges="662 699 699 704 650"/>
	</vehicle>
	<vehicle depart="0.1" departLane="0" departPos="141.33630642789538" departSpeed="4.2805" id="343" type="passenger">
		<route edges="637 680 630 673 658 676 634"/>
	</vehicle>
	<vehicle depart="0.1" departLane="0" departPos="163.8571387678095" departSpeed="14.0654" id="344" type="passenger">
		<route edges="640 706 634"/>
	</vehicle>
	<vehicle depart="0.1" departLane="0" departPos="35.07042840668612" departSpeed="0.1994" id="345" type="passenger">
		<route edges="662 699 699 644 666 654 689 630 673 658 676 634"/>
	</vehicle>
	<vehicle depart="0.1" departLane="0" departPos="143.43447563411164" departSpeed="11.437" id="346" type="passenger">
		<route edges="635"/>
	</vehicle>
	<vehicle depart="0.1" departLane="0" departPos="0" departSpeed="11.9558" id="347" type="passenger">
		<route edges="646 702 654 682 638"/>
	</vehicle>
	<vehicle depart="0.1" departLane="0" departPos="0" departSpeed="8.4351" id="348" type="passenger">
		<route edges="659"/>
	</vehicle>
	<vehicle depart="0.1" departLane="1" departPos="0" departSpeed="7.084" id="349" type="passenger">
		<route edges="694 655 678 627 671 638"/>
	</vehicle>
	<vehicle depart="0.1" departLane="0" departPos="133.68141010704343" departSpeed="12.2412" id="350" type="passenger">
		<route edges="636 691 648 668 627 701 651 683 641 698 650"/>
	</vehicle>
	<vehicle depart="0.1" departLane="0" departPos="125.72222293040221" departSpeed="6.2257" id="351" type="passenger">
		<route edges="637 680 630 673 658 676 634"/>
	</vehicle>
	<vehicle depart="0.1" departLane="1" departPos="0" departSpeed="14.1947" id="352" type="passenger">
		<route edges="640 706 634"/>
	</vehicle>
	<vehicle depart="0.1" departLane="1" departPos="26.952123982636635" departSpeed="0.4482" id="353" type="passenger">
		<route edges="662 662 699 644 666 654 689 630 673 658 676"/>
	</vehicle>
	<vehicle depart="0.1" departLane="0" departPos="124.36003883107966" departSpeed="11.3519" id="354" type="passenger">
		<route edges="635"/>
	</vehicle>
	<vehicle depart="0.1" departLane="0" departPos="101.27380531323854" departSpeed="7.7461" id="355" type="passenger">
		<route edges="631 694 655 678 627 701 651 683 641 698 650"/>
	</vehicle>
	<vehicle depart="0.1" departLane="0" departPos="0" departSpeed="11.8896" id="356" type="passenger">
		<route edges="646 702 654 689 630 673 658 676 634"/>
	</vehicle>
	<vehicle depart="0.1" departLane="0" departPos="0" departSpeed="6.8111" id="357" type="passenger">
		<route edges="670 659"/>
	</vehicle>
	<vehicle depart="0.1" departLane="0" departPos="108.81047913642307" departSpeed="7.586" id="358" type="passenger">
		<route edges="637 680 630 673 658 676 634"/>
	</vehicle>
	<vehicle depart="0.1" departLane="0" departPos="113.73413800596921" departSpeed="12.3296" id="359" type="passenger">
		<route edges="636 691 648 668 627 701 651 683 641 698 650"/>
	</vehicle>
	<vehicle depart="0.1" departLane="0" departPos="0" departSpeed="13.8791" id="360" type="passenger">
		<route edges="640 706 634"/>
	</vehicle>
	<vehicle depart="0.1" departLane="0" departPos="105.42633056235145" departSpeed="11.2628" id="361" type="passenger">
		<route edges="635"/>
	</vehicle>
	<vehicle depart="0.1" departLane="1" departPos="78.03839828826473" departSpeed="7.4475" id="362" type="passenger">
		<route edges="631 694 655 678 627 671 638"/>
	</vehicle>
	<vehicle depart="0.1" departLane="0" departPos="0" departSpeed="12.0012" id="363" type="passenger">
		<route edges="646 702 654 689 630 673 658 676 634"/>
	</vehicle>
	<vehicle depart="0.1" departLane="0" departPos="100.76629319376647" departSpeed="7.424" id="364" type="passenger">
		<route edges="649 670 659"/>
	</vehicle>
	<vehicle depart="0.1" departLane="0" departPos="89.69936506324512" departSpeed="9.0206" id="365" type="passenger">
		<route edges="637 680 630 673 658 676 634"/>
	</vehicle>
	<vehicle depart="0.1" departLane="0" departPos="0" departSpeed="0.7573" id="366" type="passenger">
		<route edges="662 699 644 666 654 689 630 673 658 676"/>
	</vehicle>
	<vehicle depart="0.1" departLane="0" departPos="0" departSpeed="13.5931" id="367" type="passenger">
		<route edges="640 706 634"/>
	</vehicle>
	<vehicle depart="0.1" departLane="0" departPos="93.83689722113331" departSpeed="12.1593" id="368" type="passenger">
		<route edges="636 691 648 668 627 701 651 683 641 698 650"/>
	</vehicle>
	<vehicle depart="0.1" departLane="0" departPos="80.31673700206974" departSpeed="13.0151" id="369" type="passenger">
		<route edges="635"/>
	</vehicle>
	<vehicle depart="0.1" departLane="0" departPos="63.11519800594428" departSpeed="7.2336" id="370" type="passenger">
		<route edges="631 631 694 655 678 627 671 638"/>
	</vehicle>
	<vehicle depart="0.1" departLane="0" departPos="0" departSpeed="12.1021" id="371" type="passenger">
		<route edges="646 702 654 689 630 673 658 676 634"/>
	</vehicle>
	<vehicle depart="0.1" departLane="0" departPos="100.76629319376647" departSpeed="8.0473" id="372" type="passenger">
		<route edges="649 670 659"/>
	</vehicle>
	<vehicle depart="0.1" departLane="0" departPos="0" departSpeed="13.9077" id="373" type="passenger">
		<route edges="640 640 706 634"/>
	</vehicle>
	<vehicle depart="0.1" departLane="0" departPos="0" departSpeed="9.7137" id="374" type="passenger">
		<route edges="637 680 630 673 658 676 634"/>
	</vehicle>
	<vehicle depart="0.1" departLane="0" departPos="73.92756211606994" departSpeed="12.2818" id="375" type="passenger">
		<route edges="636 691 648 668 627"/>
	</vehicle>
	<vehicle depart="0.1" departLane="0" departPos="0" departSpeed="7.0232" id="376" type="passenger">
		<route edges="631 631 694 655 678 627 671 638"/>
	</vehicle>
	<vehicle depart="0.1" departLane="0" departPos="0" departSpeed="11.8725" id="377" type="passenger">
		<route edges="646 702 654 689 630 673 658 676 634"/>
	</vehicle>
	<vehicle depart="0.1" departLane="0" departPos="51.31260766950948" departSpeed="8.3616" id="378" type="passenger">
		<route edges="649 670 659"/>
	</vehicle>
	<vehicle depart="0.1" departLane="0" departPos="57.35756423265394" departSpeed="13.5873" id="379" type="passenger">
		<route edges="635"/>
	</vehicle>
	<vehicle depart="0.1" departLane="0" departPos="0" departSpeed="13.8377" id="380" type="passenger">
		<route edges="640 640 706 634"/>
	</vehicle>
	<vehicle depart="0.1" departLane="0" departPos="0" departSpeed="10.1941" id="381" type="passenger">
		<route edges="637 680 630 673 658 676 634"/>
	</vehicle>
	<vehicle depart="0.1" departLane="0" departPos="0" departSpeed="12.727" id="382" type="passenger">
		<route edges="636 691 648 668 627"/>
	</vehicle>
	<vehicle depart="0.1" departLane="0" departPos="0" departSpeed="1.088" id="384" type="passenger">
		<route edges="662 699 644 666 654 689 630 673 658 676"/>
	</vehicle>
	<vehicle depart="0.1" departLane="0" departPos="0" departSpeed="11.9836" id="385" type="passenger">
		<route edges="646 702 654 689 630 673 658 676 634"/>
	</vehicle>
	<vehicle depart="0.1" departLane="0" departPos="35.096014178149375" departSpeed="8.4651" id="386" type="passenger">
		<route edges="649 670 659"/>
	</vehicle>
	<vehicle depart="0.1" departLane="0" departPos="35.02249107742813" departSpeed="11.3912" id="387" type="passenger">
		<route edges="635"/>
	</vehicle>
	<vehicle depart="0.1" departLane="0" departPos="0" departSpeed="11.8283" id="388" type="passenger">
		<route edges="640 640 706 634"/>
	</vehicle>
	<vehicle depart="0.1" departLane="0" departPos="0" departSpeed="10.582" id="389" type="passenger">
		<route edges="637 680 630 673 658 676 634"/>
	</vehicle>
	<vehicle depart="0.1" departLane="1" departPos="0" departSpeed="0.3893" id="390" type="passenger">
		<route edges="662 699 644 666 654 689 630 673 658 676"/>
	</vehicle>
	<vehicle depart="0.1" departLane="0" departPos="0" departSpeed="6.0126" id="391" type="passenger">
		<route edges="631 694 655 678 627 701 651 683 641 698 650"/>
	</vehicle>
	<vehicle depart="0.1" departLane="0" departPos="0" departSpeed="9.4432" id="392" type="passenger">
		<route edges="636 691 648 668 627"/>
	</vehicle>
	<vehicle depart="0.1" departLane="0" departPos="0" departSpeed="8.6814" id="393" type="passenger">
		<route edges="646 702 654 689 630 673 658 676 634"/>
	</vehicle>
	<vehicle depart="0.1" departLane="0" departPos="20.65935535998246" departSpeed="7.8002" id="394" type="passenger">
		<route edges="649 670 659"/>
	</vehicle>
	<vehicle depart="0.1" departLane="0" departPos="0" departSpeed="8.0974" id="395" type="passenger">
		<route edges="640 640 706 634"/>
	</vehicle>
	<vehicle depart="0.1" departLane="0" departPos="0" departSpeed="7.9134" id="396" type="passenger">
		<route edges="635"/>
	</vehicle>
	<vehicle depart="0.1" departLane="0" departPos="0" departSpeed="8.5635" id="397" type="passenger">
		<route edges="637 680 630 673 658 676 634"/>
	</vehicle>
	<vehicle depart="0.1" departLane="0" departPos="0" departSpeed="4.8566" id="398" type="passenger">
		<route edges="631 694 655 678 627 701 651 683 641 698 650"/>
	</vehicle>
	<vehicle depart="0.1" departLane="1" departPos="0" departSpeed="10.36" id="399" type="passenger">
		<route edges="631 694 655 678 627 671 638"/>
	</vehicle>
	<vehicle depart="0.1" departLane="0" departPos="0" departSpeed="6.1746" id="3100" type="passenger">
		<route edges="636 691 648 668 627"/>
	</vehicle>
	<vehicle depart="0.1" departLane="0" departPos="0" departSpeed="3.5048" id="3101" type="passenger">
		<route edges="646 702 654 689 630 673 658 676 634"/>
	</vehicle>
	<vehicle depart="0.1" departLane="0" departPos="0" departSpeed="4.2688" id="3102" type="passenger">
		<route edges="649 670 659"/>
	</vehicle>
	<vehicle depart="0.1" departLane="0" departPos="0" departSpeed="4.9684" id="3103" type="passenger">
		<route edges="640 640 706 634"/>
	</vehicle>
	<vehicle depart="0.1" departLane="0" departPos="0" departSpeed="5.1294" id="3104" type="passenger">
		<route edges="637 680 630 673 658 676 634"/>
	</vehicle>
	<vehicle depart="0.1" departLane="0" departPos="0" departSpeed="4.8948" id="3105" type="passenger">
		<route edges="635"/>
	</vehicle>
	<vehicle depart="0.1" departLane="0" departPos="0" departSpeed="2.9699" id="3106" type="passenger">
		<route edges="636 691 648 668 627"/>
	</vehicle>
</routes>
