<!-- generated on 2020-12-18 16:15:00.969766 by ipykernel_launcher.py v1_2_0+5214-53edc58fcd
-->
<edges>
	<edge from="1" function="normal" id="627" length="48.26735740693633" numLanes="2" priority="1" speed="36.11111111111111" spreadType="center" to="2">
		<lane allow="moped bicycle pedestrian custom1 trailer evehicle rail_urban ship private vip custom2 authority delivery rail_electric taxi tram army hov coach motorcycle passenger rail emergency" index="0" length="48.26735740693633" shape="14.9741,46.82495 15.687550000000002,43.826750000000004 17.2275,38.4089 19.9217,30.67125 31.633899999999997,1.1518000000000002" speed="36.11111111111111" width="2.4998840473109945"/>
		<lane allow="moped bicycle pedestrian custom1 trailer evehicle rail_urban ship private vip custom2 authority delivery rail_electric taxi tram army hov coach motorcycle passenger rail emergency" index="1" length="48.26735740693633" shape="17.41105,47.38165 18.10585,44.4587 19.62025,39.1329 22.28905,31.47755 33.95165,2.0882" speed="36.11111111111111" width="2.4992311317683327"/>
	</edge>
	<edge from="3" function="normal" id="630" length="47.47128018545921" numLanes="2" priority="1" speed="36.11111111111111" spreadType="center" to="4">
		<lane allow="moped bicycle pedestrian custom1 trailer evehicle rail_urban ship private vip custom2 authority delivery rail_electric taxi tram army hov coach motorcycle passenger rail emergency" index="0" length="47.47128018545921" shape="38.59095,3.9528499999999998 27.12885,32.81165 24.491799999999998,40.315799999999996 22.984,45.56455 22.28745,48.4872" speed="36.11111111111111" width="2.4997842806930364"/>
		<lane allow="moped bicycle pedestrian custom1 trailer evehicle rail_urban ship private vip custom2 authority delivery rail_electric taxi tram army hov coach motorcycle passenger rail emergency" index="1" length="47.47128018545921" shape="36.2692,3.0252 24.70895,32.1443 22.0559,39.7243 20.54485,45.0119 19.8493,47.934349999999995" speed="36.11111111111111" width="2.5005527968831216"/>
	</edge>
	<edge from="5" function="normal" id="631" length="101.27380531323854" numLanes="2" priority="1" speed="36.11111111111111" spreadType="center" to="6">
		<lane allow="moped bicycle pedestrian custom1 trailer evehicle rail_urban ship private vip custom2 authority delivery rail_electric taxi tram army hov coach motorcycle passenger rail emergency" index="0" length="101.27380531323854" shape="-27.9345,179.7288 -17.194499999999998,152.16215 -10.028,133.4287 -0.67215,108.01885 4.55145,92.8472 7.03125,84.70840000000001" speed="36.11111111111111" width="2.499898551941659"/>
		<lane allow="moped bicycle pedestrian custom1 trailer evehicle rail_urban ship private vip custom2 authority delivery rail_electric taxi tram army hov coach motorcycle passenger rail emergency" index="1" length="101.27380531323854" shape="-25.603749999999998,180.633 -14.84855,153.02710000000002 -7.66865,134.25695000000002 1.7062,108.7923 6.948449999999999,93.5599 9.4395,85.3786" speed="36.11111111111111" width="2.5000262098626105"/>
	</edge>
	<edge from="7" function="normal" id="634" length="101.75372065193986" numLanes="2" priority="1" speed="36.11111111111111" spreadType="center" to="8">
		<lane allow="moped bicycle pedestrian custom1 trailer evehicle rail_urban ship private vip custom2 authority delivery rail_electric taxi tram army hov coach motorcycle passenger rail emergency" index="0" length="101.75372065193986" shape="14.248349999999999,86.747 11.73955,94.99645 6.4828,110.28354999999999 -2.92875,135.8572 -10.1374,154.7077 -20.939549999999997,182.4345" speed="36.11111111111111" width="2.499905456212296"/>
		<lane allow="moped bicycle pedestrian custom1 trailer evehicle rail_urban ship private vip custom2 authority delivery rail_electric taxi tram army hov coach motorcycle passenger rail emergency" index="1" length="101.75372065193986" shape="11.84525,86.05805000000001 9.344,94.27815 4.0945,109.53790000000001 -5.2987,135.05705 -12.492999999999999,153.86735 -23.27165,181.53375" speed="36.11111111111111" width="2.4999901799807143"/>
	</edge>
	<edge from="9" function="normal" id="635" length="228.81960658768344" numLanes="1" priority="1" speed="36.11111111111111" spreadType="center" to="10">
		<lane allow="moped bicycle pedestrian custom1 trailer evehicle rail_urban ship private vip custom2 authority delivery rail_electric taxi tram army hov coach motorcycle passenger rail emergency" index="0" length="228.81960658768344" shape="-105.59085,13.268 -103.07509999999999,3.0523499999999997 -99.31315000000001,-13.54985 -95.72274999999999,-31.21315 -92.32939999999999,-49.934 -88.9838,-70.69485 -85.4285,-95.47534999999999 -76.3193,-165.9872 -73.1856,-188.80464999999998 -69.5968,-212.56805000000003" speed="36.11111111111111" width="2.4999482334640537"/>
	</edge>
	<edge from="11" function="normal" id="636" length="229.03880873644033" numLanes="1" priority="1" speed="36.11111111111111" spreadType="center" to="12">
		<lane allow="moped bicycle pedestrian custom1 trailer evehicle rail_urban ship private vip custom2 authority delivery rail_electric taxi tram army hov coach motorcycle passenger rail emergency" index="0" length="229.03880873644033" shape="-67.12639999999999,-212.18455 -70.71555000000001,-188.41764999999998 -73.8485,-165.60205000000002 -82.96315,-95.05165 -86.52435,-70.2397 -89.8766,-49.4461 -93.2774,-30.69115 -96.87585,-12.992750000000001 -100.6458,3.64255 -103.1642,13.8662" speed="36.11111111111111" width="2.499068322395377"/>
	</edge>
	<edge from="13" function="normal" id="637" length="174.516724362658" numLanes="1" priority="1" speed="36.11111111111111" spreadType="center" to="14">
		<lane allow="moped bicycle pedestrian custom1 trailer evehicle rail_urban ship private vip custom2 authority delivery rail_electric taxi tram army hov coach motorcycle passenger rail emergency" index="0" length="174.516724362658" shape="209.7325,60.1088 192.77485000000001,53.914500000000004 46.365700000000004,-1.26775" speed="36.11111111111111" width="2.4963138524632695"/>
	</edge>
	<edge from="15" function="normal" id="638" length="174.4912821214655" numLanes="1" priority="1" speed="36.11111111111111" spreadType="center" to="16">
		<lane allow="moped bicycle pedestrian custom1 trailer evehicle rail_urban ship private vip custom2 authority delivery rail_electric taxi tram army hov coach motorcycle passenger rail emergency" index="0" length="174.4912821214655" shape="47.2477,-3.60515 193.6408,51.56925 210.59125,57.76095" speed="36.11111111111111" width="2.499968067796065"/>
	</edge>
	<edge from="17" function="normal" id="640" length="297.3268368021098" numLanes="2" priority="1" speed="36.11111111111111" spreadType="center" to="18">
		<lane allow="moped bicycle pedestrian custom1 trailer evehicle rail_urban ship private vip custom2 authority delivery rail_electric taxi tram army hov coach motorcycle passenger rail emergency" index="0" length="297.3268368021098" shape="303.27315,176.9925 190.3836,138.22075 168.6619,130.50305 156.80875,126.4537 48.75275,90.5941 24.10605,82.01240000000001 21.788899999999998,81.158" speed="36.11111111111111" width="2.499748955395316"/>
		<lane allow="moped bicycle pedestrian custom1 trailer evehicle rail_urban ship private vip custom2 authority delivery rail_electric taxi tram army hov coach motorcycle passenger rail emergency" index="1" length="297.3268368021098" shape="304.0847,174.6279 191.2191,135.8645 169.4853,128.14249999999998 157.623,124.09 49.5953,88.2401 24.9717,79.66705 22.629649999999998,78.80510000000001" speed="36.11111111111111" width="2.497505181175809"/>
	</edge>
	<edge from="19" function="normal" id="641" length="5.280893348072391" numLanes="2" priority="1" speed="36.11111111111111" spreadType="center" to="20">
		<lane allow="moped bicycle pedestrian custom1 trailer evehicle rail_urban ship private truck vip custom2 authority delivery rail_electric taxi tram army hov coach motorcycle passenger bus rail emergency" index="0" length="5.280893348072391" shape="51.19915,-51.4936 51.974,-54.0247 52.745400000000004,-56.54305" speed="36.11111111111111" width="2.499029421595514"/>
		<lane allow="moped bicycle pedestrian custom1 trailer evehicle rail_urban ship private truck vip custom2 authority delivery rail_electric taxi tram army hov coach motorcycle passenger bus rail emergency" index="1" length="5.280893348072391" shape="53.59135,-50.7682 54.3644,-53.292699999999996 55.137699999999995,-55.818200000000004" speed="36.11111111111111" width="2.499594697145917"/>
	</edge>
	<edge from="21" function="normal" id="644" length="5.27255975015551" numLanes="2" priority="1" speed="36.11111111111111" spreadType="center" to="22">
		<lane allow="moped bicycle pedestrian custom1 trailer evehicle rail_urban ship private truck vip custom2 authority delivery rail_electric taxi tram army hov coach motorcycle passenger bus rail emergency" index="0" length="5.27255975015551" shape="59.9206,-54.361050000000006 59.1453,-51.8287 58.374449999999996,-49.3121" speed="36.11111111111111" width="2.498701352703034"/>
		<lane allow="moped bicycle pedestrian custom1 trailer evehicle rail_urban ship private truck vip custom2 authority delivery rail_electric taxi tram army hov coach motorcycle passenger bus rail emergency" index="1" length="5.27255975015551" shape="57.5279,-55.08515 56.754850000000005,-52.5607 55.98415,-50.04365" speed="36.11111111111111" width="2.499570381085521"/>
	</edge>
	<edge from="23" function="normal" id="645" length="228.04100134800237" numLanes="1" priority="1" speed="36.11111111111111" spreadType="center" to="24">
		<lane allow="moped bicycle pedestrian custom1 trailer evehicle rail_urban ship private vip custom2 authority delivery rail_electric taxi tram army hov coach motorcycle passenger rail emergency" index="0" length="228.04100134800237" shape="61.408,-40.131550000000004 65.74565,-38.894 73.0684,-37.19535 100.58109999999999,-31.64665 130.6275,-25.9984 285.77265,0.3925" speed="36.11111111111111" width="2.4999233688255362"/>
	</edge>
	<edge from="25" function="normal" id="646" length="228.3592607685592" numLanes="1" priority="1" speed="36.11111111111111" spreadType="center" to="26">
		<lane allow="moped bicycle pedestrian custom1 trailer evehicle rail_urban ship private vip custom2 authority delivery rail_electric taxi tram army hov coach motorcycle passenger rail emergency" index="0" length="228.3592607685592" shape="285.34574999999995,2.8557500000000005 130.08065,-23.5569 99.99455,-29.213949999999997 72.43645,-34.773849999999996 65.06175,-36.48925 60.67215,-37.74375" speed="36.11111111111111" width="2.4972522219431537"/>
	</edge>
	<edge from="27" function="normal" id="648" length="111.8522033253515" numLanes="2" priority="1" speed="36.11111111111111" spreadType="center" to="28">
		<lane allow="moped bicycle pedestrian custom1 trailer evehicle rail_urban ship private vip custom2 authority delivery rail_electric taxi tram army hov coach motorcycle passenger rail emergency" index="0" length="111.8522033253515" shape="-99.57339999999999,21.6456 -89.77885,24.09685 -62.4765,31.36175 -42.089200000000005,37.1639 -22.30165,43.2052 7.9321,52.978" speed="36.11111111111111" width="2.498455362819195"/>
		<lane allow="moped bicycle pedestrian custom1 trailer evehicle rail_urban ship private vip custom2 authority delivery rail_electric taxi tram army hov coach motorcycle passenger rail emergency" index="1" length="111.8522033253515" shape="-100.18545,24.0689 -90.40535,26.5171 -63.14985,33.76935 -42.8049,39.559200000000004 -23.05575,45.5887 7.1696,55.3571" speed="36.11111111111111" width="2.4999561996163027"/>
	</edge>
	<edge from="29" function="normal" id="649" length="100.76629319376647" numLanes="1" priority="1" speed="36.11111111111111" spreadType="center" to="30">
		<lane allow="moped bicycle pedestrian custom1 trailer evehicle rail_urban ship private vip custom2 authority delivery rail_electric taxi tram army hov coach motorcycle passenger rail emergency" index="0" length="100.76629319376647" shape="-42.303799999999995,-72.6148 -39.03615,-74.08019999999999 -24.76895,-81.00605 -17.3217,-84.40185 -11.6051,-86.638 -6.2476,-88.35755 -2.7710999999999997,-89.211 -0.23105000000000003,-89.49595 1.8138,-89.4579 3.8348999999999998,-89.14825 6.29125,-88.43845 10.61585,-86.86045 19.939799999999998,-82.648 50.686,-68.70885000000001" speed="36.11111111111111" width="2.496975949023136"/>
	</edge>
	<edge from="31" function="normal" id="650" length="98.67221927082447" numLanes="1" priority="1" speed="36.11111111111111" spreadType="center" to="32">
		<lane allow="moped bicycle pedestrian custom1 trailer evehicle rail_urban ship private vip custom2 authority delivery rail_electric taxi tram army hov coach motorcycle passenger rail emergency" index="0" length="98.67221927082447" shape="49.66295,-66.4297 19.225250000000003,-80.22980000000001 10.04095,-84.3923 5.846550000000001,-85.9492 3.5392,-86.64914999999999 1.72105,-86.95885000000001 -0.12660000000000002,-87.0015 -2.47745,-86.72545 -5.79505,-85.8872 -11.01355,-84.19475 -16.59785,-81.9933 -23.91895,-78.64055 -38.0417,-71.786 -41.29275,-70.32835" speed="36.11111111111111" width="2.4994905580937914"/>
	</edge>
	<edge from="33" function="normal" id="651" length="20.457357333734148" numLanes="2" priority="1" speed="36.11111111111111" spreadType="center" to="34">
		<lane allow="moped bicycle pedestrian custom1 trailer evehicle rail_urban ship private vip custom2 authority delivery rail_electric taxi tram army hov coach motorcycle passenger rail emergency" index="0" length="20.457357333734148" shape="38.44225,-15.883949999999999 41.6506,-23.9634 45.782250000000005,-34.9782" speed="36.11111111111111" width="2.5000457275817927"/>
		<lane allow="moped bicycle pedestrian custom1 trailer evehicle rail_urban ship private vip custom2 authority delivery rail_electric taxi tram army hov coach motorcycle passenger rail emergency" index="1" length="20.457357333734148" shape="40.765100000000004,-14.95995 43.9892,-23.079549999999998 48.132400000000004,-34.126599999999996" speed="36.11111111111111" width="2.4992038732364295"/>
	</edge>
	<edge from="35" function="normal" id="654" length="20.62680002475542" numLanes="2" priority="1" speed="36.11111111111111" spreadType="center" to="36">
		<lane allow="moped bicycle pedestrian custom1 trailer evehicle rail_urban ship private vip custom2 authority delivery rail_electric taxi tram army hov coach motorcycle passenger rail emergency" index="0" length="20.62680002475542" shape="52.8434,-32.45155 48.6533,-21.2776 45.40875,-13.10655" speed="36.11111111111111" width="2.4992985615968353"/>
		<lane allow="moped bicycle pedestrian custom1 trailer evehicle rail_urban ship private vip custom2 authority delivery rail_electric taxi tram army hov coach motorcycle passenger rail emergency" index="1" length="20.62680002475542" shape="50.4851,-33.28175 46.321250000000006,-22.1786 43.085350000000005,-14.02895" speed="36.11111111111111" width="2.5000592252984726"/>
	</edge>
	<edge from="37" function="normal" id="655" length="2.7622473302653443" numLanes="2" priority="1" speed="36.11111111111111" spreadType="center" to="38">
		<lane allow="moped bicycle pedestrian custom1 trailer evehicle rail_urban ship private truck vip custom2 authority delivery rail_electric taxi tram army hov coach motorcycle passenger bus rail emergency" index="0" length="2.7622473302653443" shape="10.99065,67.43055 11.2636,66.0672 11.5338,64.7208" speed="36.11111111111111" width="2.500012319969643"/>
		<lane allow="moped bicycle pedestrian custom1 trailer evehicle rail_urban ship private truck vip custom2 authority delivery rail_electric taxi tram army hov coach motorcycle passenger bus rail emergency" index="1" length="2.7622473302653443" shape="13.44255,67.91544999999999 13.71475,66.559 13.986049999999999,65.2072" speed="36.11111111111111" width="2.4979300430556517"/>
	</edge>
	<edge from="39" function="normal" id="658" length="2.75546214668156" numLanes="2" priority="1" speed="36.11111111111111" spreadType="center" to="40">
		<lane allow="moped bicycle pedestrian custom1 trailer evehicle rail_urban ship private truck vip custom2 authority delivery rail_electric taxi tram army hov coach motorcycle passenger bus rail emergency" index="0" length="2.75546214668156" shape="18.88985,66.1824 18.61705,67.5426 18.34495,68.8986" speed="36.11111111111111" width="2.4999516895332197"/>
		<lane allow="moped bicycle pedestrian custom1 trailer evehicle rail_urban ship private truck vip custom2 authority delivery rail_electric taxi tram army hov coach motorcycle passenger bus rail emergency" index="1" length="2.75546214668156" shape="16.43805,65.6944 16.1659,67.05080000000001 15.8954,68.39590000000001" speed="36.11111111111111" width="2.49983862079135"/>
	</edge>
	<edge from="41" function="normal" id="659" length="81.97186825553368" numLanes="2" priority="1" speed="36.11111111111111" spreadType="center" to="42">
		<lane allow="moped bicycle pedestrian custom1 trailer evehicle rail_urban ship private vip custom2 authority delivery rail_electric taxi tram army hov coach motorcycle passenger rail emergency" index="0" length="81.97186825553368" shape="58.15355,-74.4597 60.2461,-81.70695 66.4576,-103.9911 70.48605,-119.57145 72.8756,-129.8581 74.7293,-139.7434 76.97630000000001,-154.1533" speed="36.11111111111111" width="2.499871854715755"/>
		<lane allow="moped bicycle pedestrian custom1 trailer evehicle rail_urban ship private vip custom2 authority delivery rail_electric taxi tram army hov coach motorcycle passenger rail emergency" index="1" length="81.97186825553368" shape="60.5559,-73.76740000000001 62.6548,-81.03735 68.8843,-103.3884 72.92724999999999,-119.0299 75.3314,-129.38945 77.1951,-139.33205 79.4468,-153.7704" speed="36.11111111111111" width="2.4999417993225355"/>
	</edge>
	<edge from="43" function="normal" id="662" length="82.61706187573922" numLanes="2" priority="1" speed="36.11111111111111" spreadType="center" to="44">
		<lane allow="moped bicycle pedestrian custom1 trailer evehicle rail_urban ship private vip custom2 authority delivery rail_electric taxi tram army hov coach motorcycle passenger rail emergency" index="0" length="82.61706187573922" shape="84.38855,-153.00915 82.11155,-138.4195 80.22945,-128.38455 77.8143,-117.96459999999999 73.7441,-102.2063 67.4701,-79.69030000000001 65.3529,-72.35815" speed="36.11111111111111" width="2.5000558593759448"/>
		<lane allow="moped bicycle pedestrian custom1 trailer evehicle rail_urban ship private vip custom2 authority delivery rail_electric taxi tram army hov coach motorcycle passenger rail emergency" index="1" length="82.61706187573922" shape="81.91765,-153.38979999999998 79.6533,-138.87575 77.7804,-128.88695 75.3708,-118.4973 71.3142,-102.79735 65.06245,-80.36385 62.95555,-73.06665000000001" speed="36.11111111111111" width="2.499592546796375"/>
	</edge>
	<edge from="45" function="normal" id="664" length="3.7562669457177913" numLanes="2" priority="1" speed="36.11111111111111" spreadType="center" to="46">
		<lane allow="moped bicycle pedestrian custom1 trailer evehicle rail_urban ship private truck vip custom2 authority delivery rail_electric taxi tram army hov coach motorcycle passenger bus rail emergency" index="0" length="3.7562669457177913" shape="-116.94265,17.367350000000002 -115.11435,17.820050000000002 -113.2966,18.2706" speed="36.11111111111111" width="2.497845871946463"/>
		<lane allow="moped bicycle pedestrian custom1 trailer evehicle rail_urban ship private truck vip custom2 authority delivery rail_electric taxi tram army hov coach motorcycle passenger bus rail emergency" index="1" length="3.7562669457177913" shape="-117.54355,19.79405 -115.71525,20.24675 -113.87719999999999,20.7014" speed="36.11111111111111" width="2.49999073998285"/>
	</edge>
	<edge from="20" function="normal" id="665" length="18.71508572453208" numLanes="2" priority="1" speed="36.11111111111111" spreadType="center" to="41">
		<lane allow="moped bicycle pedestrian custom1 trailer evehicle rail_urban ship private truck vip custom2 authority delivery rail_electric taxi tram army hov coach motorcycle passenger bus rail emergency" index="0" length="18.71508572453208" shape="52.745400000000004,-56.54305 55.45025,-65.50425 58.15355,-74.4597" speed="36.11111111111111" width="2.499029421595514"/>
		<lane allow="moped bicycle pedestrian custom1 trailer evehicle rail_urban ship private truck vip custom2 authority delivery rail_electric taxi tram army hov coach motorcycle passenger bus rail emergency" index="1" length="18.71508572453208" shape="55.137699999999995,-55.818200000000004 57.84595,-64.78995 60.5559,-73.76740000000001" speed="36.11111111111111" width="2.4998921616741803"/>
	</edge>
	<edge from="22" function="normal" id="666" length="17.64181329017911" numLanes="2" priority="1" speed="36.11111111111111" spreadType="center" to="35">
		<lane allow="moped bicycle pedestrian custom1 trailer evehicle rail_urban ship private vip custom2 authority delivery rail_electric taxi tram army hov coach motorcycle passenger rail emergency" index="0" length="17.64181329017911" shape="58.374449999999996,-49.3121 54.77005,-38.0498 52.8434,-32.45155" speed="36.11111111111111" width="2.498701352703034"/>
		<lane allow="moped bicycle pedestrian custom1 trailer evehicle rail_urban ship private vip custom2 authority delivery rail_electric taxi tram army hov coach motorcycle passenger rail emergency" index="1" length="17.64181329017911" shape="55.98415,-50.04365 52.403999999999996,-38.85705 50.4851,-33.28175" speed="36.11111111111111" width="2.5000264898596516"/>
	</edge>
	<edge from="38" function="normal" id="678" length="18.15242104170311" numLanes="2" priority="1" speed="36.11111111111111" spreadType="center" to="1">
		<lane allow="moped bicycle pedestrian custom1 trailer evehicle rail_urban ship private vip custom2 authority delivery rail_electric taxi tram army hov coach motorcycle passenger rail emergency" index="0" length="18.15242104170311" shape="11.5338,64.7208 13.7462,52.77955 14.9741,46.82495" speed="36.11111111111111" width="2.4998840473109945"/>
		<lane allow="moped bicycle pedestrian custom1 trailer evehicle rail_urban ship private vip custom2 authority delivery rail_electric taxi tram army hov coach motorcycle passenger rail emergency" index="1" length="18.15242104170311" shape="13.986049999999999,65.2072 16.19165,53.2989 17.41105,47.38165" speed="36.11111111111111" width="2.4999163706012237"/>
	</edge>
	<edge from="28" function="normal" id="668" length="10.831433170477995" numLanes="2" priority="1" speed="36.11111111111111" spreadType="center" to="1">
		<lane allow="moped bicycle pedestrian custom1 trailer evehicle rail_urban ship private vip custom2 authority delivery rail_electric taxi tram army hov coach motorcycle passenger rail emergency" index="0" length="10.831433170477995" shape="7.9321,52.978 8.9865,53.235150000000004 10.068950000000001,53.27695 11.1226,53.0352 12.0663,52.50725 12.8484,51.75835 13.4757,50.873850000000004 13.97705,49.9114 14.379950000000001,48.90335 14.7076,47.86815 14.9741,46.82495" speed="36.11111111111111" width="2.498675337053619"/>
		<lane allow="moped bicycle pedestrian custom1 trailer evehicle rail_urban ship private vip custom2 authority delivery rail_electric taxi tram army hov coach motorcycle passenger rail emergency" index="1" length="10.831433170477995" shape="7.1696,55.3571 8.71575,55.73025 10.3149,55.800799999999995 11.917000000000002,55.47325 13.3555,54.74035 14.5206,53.7174 15.4219,52.535250000000005 16.1159,51.275400000000005 16.65535,49.9795 17.0806,48.66635 17.41105,47.38165" speed="36.11111111111111" width="2.4999163706012237"/>
	</edge>
	<edge from="26" function="normal" id="669" length="16.96903246613811" numLanes="1" priority="1" speed="36.11111111111111" spreadType="center" to="19">
		<lane allow="moped bicycle pedestrian custom1 trailer evehicle rail_urban ship private vip custom2 authority delivery rail_electric taxi tram army hov coach motorcycle passenger rail emergency" index="0" length="16.96903246613811" shape="60.67215,-37.74375 58.47485,-38.580650000000006 56.93065,-39.41525 55.530150000000006,-40.47185 54.35755,-41.775099999999995 53.5058,-43.306650000000005 53.0267,-44.9929 52.897400000000005,-46.742149999999995 53.0547,-48.49025 53.59135,-50.7682" speed="36.11111111111111" width="2.4972522219431537"/>
	</edge>
	<edge from="30" function="normal" id="670" length="11.030181835793163" numLanes="1" priority="1" speed="36.11111111111111" spreadType="center" to="41">
		<lane allow="moped bicycle pedestrian custom1 trailer evehicle rail_urban ship private vip custom2 authority delivery rail_electric taxi tram army hov coach motorcycle passenger rail emergency" index="0" length="11.030181835793163" shape="50.686,-68.70885000000001 51.8506,-68.30535 53.068200000000004,-68.19345 53.674099999999996,-68.28225 54.256299999999996,-68.47255 55.29025,-69.12389999999999 56.127449999999996,-70.01755 57.07785,-71.59035 57.97415,-73.87265 58.15355,-74.4597" speed="36.11111111111111" width="2.496975949023136"/>
	</edge>
	<edge from="2" function="normal" id="671" length="16.497935209846837" numLanes="1" priority="1" speed="36.11111111111111" spreadType="center" to="15">
		<lane allow="moped bicycle pedestrian custom1 trailer evehicle rail_urban ship private vip custom2 authority delivery rail_electric taxi tram army hov coach motorcycle passenger rail emergency" index="0" length="16.497935209846837" shape="33.95165,2.0882 34.976749999999996,-0.03394999999999998 35.97155,-1.4964 37.19725,-2.76995 38.6619,-3.7574 40.31605,-4.3759 42.06745,-4.60975 43.83295,-4.5100999999999996 46.1324,-3.98845 47.2477,-3.60515" speed="36.11111111111111" width="2.4992311317683327"/>
	</edge>
	<edge from="46" function="normal" id="672" length="10.504357804100923" numLanes="1" priority="1" speed="36.11111111111111" spreadType="center" to="9">
		<lane allow="moped bicycle pedestrian custom1 trailer evehicle rail_urban ship private vip custom2 authority delivery rail_electric taxi tram army hov coach motorcycle passenger rail emergency" index="0" length="10.504357804100923" shape="-113.2966,18.2706 -111.4528,18.5444 -110.21925,18.4758 -109.03185,18.1383 -107.97515,17.5011 -107.10995,16.6204 -106.4454,15.57855 -105.7563,13.8576 -105.59085,13.268" speed="36.11111111111111" width="2.497845871946463"/>
	</edge>
	<edge from="4" function="normal" id="673" length="18.019244594572193" numLanes="2" priority="1" speed="36.11111111111111" spreadType="center" to="39">
		<lane allow="moped bicycle pedestrian custom1 trailer evehicle rail_urban ship private vip custom2 authority delivery rail_electric taxi tram army hov coach motorcycle passenger rail emergency" index="0" length="18.019244594572193" shape="22.28745,48.4872 21.0763,54.366550000000004 18.88985,66.1824" speed="36.11111111111111" width="2.4997842806930364"/>
		<lane allow="moped bicycle pedestrian custom1 trailer evehicle rail_urban ship private vip custom2 authority delivery rail_electric taxi tram army hov coach motorcycle passenger rail emergency" index="1" length="18.019244594572193" shape="19.8493,47.934349999999995 18.63155,53.8452 16.43805,65.6944" speed="36.11111111111111" width="2.49983862079135"/>
	</edge>
	<edge from="18" function="normal" id="706" length="10.968199601473042" numLanes="2" priority="1" speed="36.11111111111111" spreadType="center" to="7">
		<lane allow="moped bicycle pedestrian custom1 trailer evehicle rail_urban ship private vip custom2 authority delivery rail_electric taxi tram army hov coach motorcycle passenger rail emergency" index="0" length="10.968199601473042" shape="21.788899999999998,81.158 20.79215,80.8494 19.78015,80.69385 18.805,80.7432 17.8737,81.03825 17.012749999999997,81.5992 16.255699999999997,82.389 15.614550000000001,83.33879999999999 15.0792,84.3973 14.63355,85.525 14.248349999999999,86.747" speed="36.11111111111111" width="2.499748955395316"/>
		<lane allow="moped bicycle pedestrian custom1 trailer evehicle rail_urban ship private vip custom2 authority delivery rail_electric taxi tram army hov coach motorcycle passenger rail emergency" index="1" length="10.968199601473042" shape="22.629649999999998,78.80510000000001 21.1709,78.3691 19.6753,78.16225 18.1709,78.26245 16.738149999999997,78.72695 15.47015,79.5404 14.413,80.61654999999999 13.55585,81.85974999999999 12.8641,83.20320000000001 12.304400000000001,84.60725 11.84525,86.05805000000001" speed="36.11111111111111" width="2.497505181175809"/>
	</edge>
	<edge from="46" function="normal" id="685" length="14.099789892302441" numLanes="2" priority="1" speed="36.11111111111111" spreadType="center" to="27">
		<lane allow="moped bicycle pedestrian custom1 trailer evehicle rail_urban ship private truck vip custom2 authority delivery rail_electric taxi tram army hov coach motorcycle passenger bus rail emergency" index="0" length="14.099789892302441" shape="-113.2966,18.2706 -106.43520000000001,19.95765 -99.57339999999999,21.6456" speed="36.11111111111111" width="2.497845871946463"/>
		<lane allow="moped bicycle pedestrian custom1 trailer evehicle rail_urban ship private truck vip custom2 authority delivery rail_electric taxi tram army hov coach motorcycle passenger bus rail emergency" index="1" length="14.099789892302441" shape="-113.87719999999999,20.7014 -107.03184999999999,22.38545 -100.18545,24.0689" speed="36.11111111111111" width="2.5000511394769482"/>
	</edge>
	<edge from="40" function="normal" id="676" length="18.12381291007834" numLanes="2" priority="1" speed="36.11111111111111" spreadType="center" to="7">
		<lane allow="moped bicycle pedestrian custom1 trailer evehicle rail_urban ship private vip custom2 authority delivery rail_electric taxi tram army hov coach motorcycle passenger rail emergency" index="0" length="18.12381291007834" shape="18.34495,68.8986 17.105449999999998,74.8698 15.765249999999998,80.8186 14.248349999999999,86.747" speed="36.11111111111111" width="2.499905456212296"/>