<!-- generated on 2020-12-18 16:15:01.063126 by ipykernel_launcher.py v1_2_0+5214-53edc58fcd
-->
<nodes>
	<node id="1" type="from" x="16.192574999999998" y="47.103300000000004"/>
	<node id="2" type="to" x="32.792775" y="1.62"/>
	<node id="3" type="from" x="37.430075" y="3.489025"/>
	<node id="4" type="to" x="21.068375" y="48.210775"/>
	<node id="5" type="from" x="-26.769125" y="180.1809"/>
	<node id="6" type="to" x="8.235375000000001" y="85.04350000000001"/>
	<node id="7" type="from" x="13.0468" y="86.402525"/>
	<node id="8" type="to" x="-22.1056" y="181.984125"/>
	<node id="9" type="from" x="-105.59085" y="13.268"/>
	<node id="10" type="to" x="-69.5968" y="-212.56805000000003"/>
	<node id="11" type="from" x="-67.12639999999999" y="-212.18455"/>
	<node id="12" type="to" x="-103.1642" y="13.8662"/>
	<node id="13" type="from" x="209.7325" y="60.1088"/>
	<node id="14" type="to" x="46.365700000000004" y="-1.26775"/>
	<node id="15" type="from" x="47.2477" y="-3.60515"/>
	<node id="16" type="to" x="210.59125" y="57.76095"/>
	<node id="17" type="from" x="303.678925" y="175.8102"/>
	<node id="18" type="to" x="22.209274999999998" y="79.98155"/>
	<node id="19" type="from" x="52.395250000000004" y="-51.1309"/>
	<node id="20" type="to" x="53.94155" y="-56.180625000000006"/>
	<node id="21" type="from" x="58.72425" y="-54.7231"/>
	<node id="22" type="to" x="57.1793" y="-49.677875"/>
	<node id="23" type="from" x="61.408" y="-40.131550000000004"/>
	<node id="24" type="to" x="285.77265" y="0.3925"/>
	<node id="25" type="from" x="285.34574999999995" y="2.8557500000000005"/>
	<node id="26" type="to" x="60.67215" y="-37.74375"/>
	<node id="27" type="from" x="-99.879425" y="22.85725"/>
	<node id="28" type="to" x="7.5508500000000005" y="54.167550000000006"/>
	<node id="29" type="from" x="-42.303799999999995" y="-72.6148"/>
	<node id="30" type="to" x="50.686" y="-68.70885000000001"/>
	<node id="31" type="from" x="49.66295" y="-66.4297"/>
	<node id="32" type="to" x="-41.29275" y="-70.32835"/>
	<node id="33" type="from" x="39.603675" y="-15.421949999999999"/>
	<node id="34" type="to" x="46.957325000000004" y="-34.5524"/>
	<node id="35" type="from" x="51.66425" y="-32.86665"/>
	<node id="36" type="to" x="44.24705" y="-13.56775"/>
	<node id="37" type="from" x="12.2166" y="67.673"/>
	<node id="38" type="to" x="12.759924999999999" y="64.964"/>
	<node id="39" type="from" x="17.66395" y="65.9384"/>
	<node id="40" type="to" x="17.120175" y="68.64725000000001"/>
	<node id="41" type="from" x="59.354725" y="-74.11355"/>
	<node id="42" type="to" x="78.21155" y="-153.96185"/>
	<node id="43" type="from" x="83.1531" y="-153.199475"/>
	<node id="44" type="to" x="64.154225" y="-72.7124"/>
	<node id="45" type="from" x="-117.2431" y="18.5807"/>
	<node id="46" type="to" x="-113.58689999999999" y="19.486"/>
</nodes>
