<routes>
	<vehicle depart="0.1" departLane="0" departPos="67.27637136512995" departSpeed="6.3647825" id="37" type="bicycle">
		<route edges="20147 20150"/>
	</vehicle>
	<vehicle depart="0.1" departLane="0" departPos="24.253357107371986" departSpeed="1.1717538" id="34" type="passenger">
		<route edges="19981 20153"/>
	</vehicle>
	<vehicle depart="0.1" departLane="0" departPos="53.575163252492615" departSpeed="3.0887953" id="314" type="passenger">
		<route edges="20147 20150"/>
	</vehicle>
	<vehicle depart="0.1" departLane="0" departPos="32.93840445994874" departSpeed="3.0212621" id="328" type="passenger">
		<route edges=":81_5 20149 20017"/>
	</vehicle>
	<vehicle depart="0.1" departLane="0" departPos="20.274552940143725" departSpeed="5.6909803" id="340" type="passenger">
		<route edges=":81_5 20149"/>
	</vehicle>
	<vehicle depart="0.1" departLane="0" departPos="14.727355294265202" departSpeed="5.0465768" id="347" type="passenger">
		<route edges=":85_3 20150 19982"/>
	</vehicle>
	<vehicle depart="0.1" departLane="0" departPos="12.215740620115733" departSpeed="12.557767" id="348" type="passenger">
		<route edges=":81_4 19982 20052"/>
	</vehicle>
	<vehicle depart="0.1" departLane="0" departPos="44.37806342591291" departSpeed="1.1397978" id="351" type="passenger">
		<route edges="20147 20017"/>
	</vehicle>
	<vehicle depart="0.1" departLane="0" departPos="16.92098844358965" departSpeed="12.30928" id="356" type="passenger">
		<route edges="20152 19982 20052"/>
	</vehicle>
	<vehicle depart="0.1" departLane="0" departPos="26.676011739585167" departSpeed="3.0988194" id="360" type="passenger">
		<route edges="20147 20017"/>
	</vehicle>
</routes>
