<routes>
	<vehicle depart="0.1" departLane="0" departPos="37.12560953401797" departSpeed="1.3233996" id="31" type="passenger">
		<route edges="107071 108343"/>
	</vehicle>
	<vehicle depart="0.1" departLane="0" departPos="54.38653397580407" departSpeed="3.6352454" id="39" type="passenger">
		<route edges="107071 108343"/>
	</vehicle>
	<vehicle depart="0.1" departLane="0" departPos="20.900477448110056" departSpeed="1.6479818" id="312" type="passenger">
		<route edges=":27_3 107070"/>
	</vehicle>
	<vehicle depart="0.1" departLane="0" departPos="45.239871132933416" departSpeed="2.3742905" id="313" type="passenger">
		<route edges="107071 108343"/>
	</vehicle>
	<vehicle depart="0.1" departLane="0" departPos="26.01543958255291" departSpeed="2.0674649" id="318" type="passenger">
		<route edges="107071 108343"/>
	</vehicle>
	<vehicle depart="0.1" departLane="0" departPos="20.676104772216483" departSpeed="1.9805824" id="329" type="passenger">
		<route edges=":27_1 108347"/>
	</vehicle>
	<vehicle depart="0.1" departLane="0" departPos="60.51292355512098" departSpeed="1.1898488" id="332" type="passenger">
		<route edges="108344 107070"/>
	</vehicle>
</routes>
