<routes>
	<vehicle depart="0.1" departLane="1" departPos="0" departSpeed="11.123547" id="1" type="passenger">
		<route edges="26 28 24"/>
	</vehicle>
	<vehicle depart="0.1" departLane="0" departPos="0" departSpeed="18.392437" id="2" type="passenger">
		<route edges="26 27 24"/>
	</vehicle>
	<vehicle depart="0.1" departLane="0" departPos="121.29819372372324" departSpeed="5.5665124" id="3" type="passenger">
		<route edges="26 26 28 24"/>
	</vehicle>
</routes>
