<routes>
	<vehicle depart="0.1" departLane="0" departPos="40.27488895086654" departSpeed="0.72529029" id="32" type="passenger">
		<route edges="66668 66687"/>
	</vehicle>
	<vehicle depart="0.1" departLane="0" departPos="31.708165953303865" departSpeed="0.99192845" id="36" type="passenger">
		<route edges="66668 66687"/>
	</vehicle>
	<vehicle depart="0.1" departLane="0" departPos="15.876793798745526" departSpeed="10.41721" id="312" type="passenger">
		<route edges="66688 66667"/>
	</vehicle>
	<vehicle depart="0.1" departLane="0" departPos="7.966941447920707" departSpeed="2.4976861" id="317" type="passenger">
		<route edges=":29_2 66691"/>
	</vehicle>
	<vehicle depart="0.1" departLane="0" departPos="18.137153548008456" departSpeed="1.22783" id="325" type="passenger">
		<route edges="66668 66687"/>
	</vehicle>
	<vehicle depart="0.1" departLane="0" departPos="33.712929424036915" departSpeed="10.059747" id="343" type="passenger">
		<route edges=":30_5 66688 66667"/>
	</vehicle>
	<vehicle depart="0.1" departLane="0" departPos="11.00430810319837" departSpeed="8.3505167" id="346" type="passenger">
		<route edges=":30_5 66688 66667"/>
	</vehicle>
	<vehicle depart="0.1" departLane="0" departPos="21.121883550484995" departSpeed="1.65212" id="34" type="motorcycle">
		<route edges="66668 66687"/>
	</vehicle>
</routes>
