<routes>
	<vehicle depart="0.1" departLane="0" departPos="24.296492393141254" departSpeed="0.37419536" id="310" type="bicycle">
		<route edges=":68_1 68159"/>
	</vehicle>
	<vehicle depart="0.1" departLane="0" departPos="17.62655472583948" departSpeed="2.6171092" id="321" type="passenger">
		<route edges=":68_0 67639 67641 67643 67383"/>
	</vehicle>
	<vehicle depart="0.1" departLane="0" departPos="9.218102661376284" departSpeed="1.9415613" id="330" type="passenger">
		<route edges=":68_0 67639 67641"/>
	</vehicle>
	<vehicle depart="0.1" departLane="0" departPos="46.53967131468548" departSpeed="3.8965316" id="338" type="passenger">
		<route edges="68157 68159"/>
	</vehicle>
	<vehicle depart="0.1" departLane="0" departPos="35.5206243509068" departSpeed="3.8490441" id="344" type="passenger">
		<route edges="68157 68159"/>
	</vehicle>
	<vehicle depart="0.1" departLane="0" departPos="24.23793027833316" departSpeed="4.0748114" id="348" type="passenger">
		<route edges="68157 68159"/>
	</vehicle>
	<vehicle depart="0.1" departLane="0" departPos="6.153998249692672" departSpeed="1.7827933" id="355" type="passenger">
		<route edges="68157 68159"/>
	</vehicle>
	<vehicle depart="0.1" departLane="0" departPos="21.94362062675687" departSpeed="0.98008166" id="36" type="motorcycle">
		<route edges=":68_1 68159"/>
	</vehicle>
	<vehicle depart="0.1" departLane="0" departPos="13.339769136606131" departSpeed="3.085046" id="350" type="motorcycle">
		<route edges="68157 68159"/>
	</vehicle>
	<vehicle depart="0.1" departLane="0" departPos="7.864746576777731" departSpeed="0.00061268591" id="32" type="truck">
		<route edges="68159 68406"/>
	</vehicle>
</routes>
