<routes>
	<vehicle depart="0.1" departLane="0" departPos="70.99977195074976" departSpeed="1.4306177" id="314" type="bicycle">
		<route edges="77670 77330"/>
	</vehicle>
	<vehicle depart="0.1" departLane="0" departPos="60.564919530117066" departSpeed="2.6181722" id="318" type="bicycle">
		<route edges="77670 77330"/>
	</vehicle>
	<vehicle depart="0.1" departLane="0" departPos="26.58418907955646" departSpeed="5.0561232" id="334" type="bicycle">
		<route edges=":17_0 77669"/>
	</vehicle>
	<vehicle depart="0.1" departLane="1" departPos="10.32437808989684" departSpeed="1.1030198" id="331" type="bus">
		<route edges=":18_0 77211"/>
	</vehicle>
	<vehicle depart="0.1" departLane="0" departPos="19.947068789047208" departSpeed="6.4052266" id="336" type="bus">
		<route edges=":17_1 77326"/>
	</vehicle>
	<vehicle depart="0.1" departLane="0" departPos="12.006398552407212" departSpeed="4.8983056" id="32" type="passenger">
		<route edges=":17_5 77330"/>
	</vehicle>
	<vehicle depart="0.1" departLane="0" departPos="69.09481695545709" departSpeed="1.5085996" id="317" type="passenger">
		<route edges="77670 77330"/>
	</vehicle>
	<vehicle depart="0.1" departLane="0" departPos="55.19868855996346" departSpeed="0.86784275" id="322" type="passenger">
		<route edges="77670 77326"/>
	</vehicle>
	<vehicle depart="0.1" departLane="0" departPos="40.399723178860036" departSpeed="8.3107999" id="340" type="passenger">
		<route edges="77329 77669"/>
	</vehicle>
	<vehicle depart="0.1" departLane="0" departPos="6.271214132544717" departSpeed="8.7271536" id="341" type="passenger">
		<route edges="77329 77669"/>
	</vehicle>
</routes>
