<routes>
	<vehicle depart="0.1" departLane="2" departPos="27.225578349833352" departSpeed="9.7321037" id="343" type="bus">
		<route edges=":7_0 10101 10851"/>
	</vehicle>
	<vehicle depart="0.1" departLane="3" departPos="11.31225124930312" departSpeed="17.50158" id="346" type="passenger">
		<route edges=":7_0 10101 10851"/>
	</vehicle>
	<vehicle depart="0.1" departLane="0" departPos="16.263260531766996" departSpeed="13.584289" id="342" type="motorcycle">
		<route edges=":7_0 10101 10850"/>
	</vehicle>
</routes>
