<!-- generated on 2020-12-18 15:58:11.841426 by ipykernel_launcher.py v1_2_0+5214-53edc58fcd
-->
<connections>
	<connection contPos="-4.0" from="3498" fromLane="0" keepClear="true" to="3716" toLane="0"/>
	<connection contPos="-4.0" from="3509" fromLane="2" keepClear="true" to="3672" toLane="0"/>
	<connection contPos="-4.0" from="3672" fromLane="0" keepClear="true" to="3456" toLane="2"/>
	<connection contPos="-4.0" from="3456" fromLane="2" keepClear="true" to="3462" toLane="2"/>
	<connection contPos="-4.0" from="3462" fromLane="2" keepClear="true" to="3468" toLane="2"/>
	<connection contPos="-4.0" from="3468" fromLane="2" keepClear="true" to="3713" toLane="2"/>
	<connection contPos="-4.0" from="3509" fromLane="1" keepClear="true" to="3636" toLane="1"/>
	<connection contPos="-4.0" from="3636" fromLane="1" keepClear="true" to="3658" toLane="1"/>
	<connection contPos="-4.0" from="3658" fromLane="1" keepClear="true" to="3676" toLane="1"/>
	<connection contPos="-4.0" from="3676" fromLane="1" keepClear="true" to="3525" toLane="2"/>
	<connection contPos="-4.0" from="3509" fromLane="0" keepClear="true" to="3636" toLane="0"/>
	<connection contPos="-4.0" from="3509" fromLane="0" keepClear="true" to="3600" toLane="0"/>
	<connection contPos="-4.0" from="3600" fromLane="0" keepClear="true" to="3542" toLane="0"/>
	<connection contPos="-4.0" from="3636" fromLane="0" keepClear="true" to="3658" toLane="0"/>
	<connection contPos="-4.0" from="3658" fromLane="0" keepClear="true" to="3676" toLane="0"/>
	<connection contPos="-4.0" from="3676" fromLane="0" keepClear="true" to="3525" toLane="1"/>
	<connection contPos="-4.0" from="3532" fromLane="1" keepClear="true" to="3534" toLane="2"/>
	<connection contPos="-4.0" from="3534" fromLane="2" keepClear="true" to="3536" toLane="2"/>
	<connection contPos="-4.0" from="3536" fromLane="2" keepClear="true" to="3668" toLane="0"/>
	<connection contPos="-4.0" from="3536" fromLane="2" keepClear="true" to="3620" toLane="1"/>
	<connection contPos="-4.0" from="3620" fromLane="1" keepClear="true" to="3662" toLane="1"/>
	<connection contPos="-4.0" from="3662" fromLane="1" keepClear="true" to="3640" toLane="1"/>
	<connection contPos="-4.0" from="3640" fromLane="1" keepClear="true" to="3517" toLane="2"/>
	<connection contPos="-4.0" from="3668" fromLane="0" keepClear="true" to="3542" toLane="2"/>
	<connection contPos="-4.0" from="3532" fromLane="0" keepClear="true" to="3534" toLane="0"/>
	<connection contPos="-4.0" from="3532" fromLane="0" keepClear="true" to="3534" toLane="1"/>
	<connection contPos="-4.0" from="3534" fromLane="1" keepClear="true" to="3536" toLane="1"/>
	<connection contPos="-4.0" from="3536" fromLane="1" keepClear="true" to="3620" toLane="0"/>
	<connection contPos="-4.0" from="3620" fromLane="0" keepClear="true" to="3662" toLane="0"/>
	<connection contPos="-4.0" from="3662" fromLane="0" keepClear="true" to="3640" toLane="0"/>
	<connection contPos="-4.0" from="3640" fromLane="0" keepClear="true" to="3517" toLane="1"/>
	<connection contPos="-4.0" from="3534" fromLane="0" keepClear="true" to="3536" toLane="0"/>
	<connection contPos="-4.0" from="3536" fromLane="0" keepClear="true" to="3602" toLane="0"/>
	<connection contPos="-4.0" from="3602" fromLane="0" keepClear="true" to="3456" toLane="0"/>
	<connection contPos="-4.0" from="3456" fromLane="0" keepClear="true" to="3462" toLane="0"/>
	<connection contPos="-4.0" from="3462" fromLane="0" keepClear="true" to="3468" toLane="0"/>
	<connection contPos="-4.0" from="3468" fromLane="0" keepClear="true" to="3718" toLane="0"/>
	<connection contPos="-4.0" from="3468" fromLane="0" keepClear="true" to="3713" toLane="0"/>
	<connection contPos="-4.0" from="3718" fromLane="0" keepClear="true" to="3500" toLane="0"/>
	<connection contPos="-4.0" from="3555" fromLane="3" keepClear="true" to="3559" toLane="3"/>
	<connection contPos="-4.0" from="3555" fromLane="3" keepClear="true" to="3559" toLane="4"/>
	<connection contPos="-4.0" from="3559" fromLane="4" keepClear="true" to="3568" toLane="4"/>
	<connection contPos="-4.0" from="3568" fromLane="4" keepClear="true" to="3670" toLane="0"/>
	<connection contPos="-4.0" from="3670" fromLane="0" keepClear="true" to="3640" toLane="1"/>
	<connection contPos="-4.0" from="3559" fromLane="3" keepClear="true" to="3568" toLane="3"/>
	<connection contPos="-4.0" from="3568" fromLane="3" keepClear="true" to="3632" toLane="2"/>
	<connection contPos="-4.0" from="3632" fromLane="2" keepClear="true" to="3652" toLane="2"/>
	<connection contPos="-4.0" from="3652" fromLane="2" keepClear="true" to="3616" toLane="2"/>
	<connection contPos="-4.0" from="3616" fromLane="2" keepClear="true" to="3456" toLane="2"/>
	<connection contPos="-4.0" from="3555" fromLane="2" keepClear="true" to="3559" toLane="2"/>
	<connection contPos="-4.0" from="3559" fromLane="2" keepClear="true" to="3568" toLane="2"/>
	<connection contPos="-4.0" from="3568" fromLane="2" keepClear="true" to="3632" toLane="1"/>
	<connection contPos="-4.0" from="3632" fromLane="1" keepClear="true" to="3652" toLane="1"/>
	<connection contPos="-4.0" from="3652" fromLane="1" keepClear="true" to="3616" toLane="1"/>
	<connection contPos="-4.0" from="3616" fromLane="1" keepClear="true" to="3456" toLane="1"/>
	<connection contPos="-4.0" from="3456" fromLane="1" keepClear="true" to="3462" toLane="1"/>
	<connection contPos="-4.0" from="3462" fromLane="1" keepClear="true" to="3468" toLane="1"/>
	<connection contPos="-4.0" from="3468" fromLane="1" keepClear="true" to="3713" toLane="1"/>
	<connection contPos="-4.0" from="3555" fromLane="1" keepClear="true" to="3559" toLane="1"/>
	<connection contPos="-4.0" from="3559" fromLane="1" keepClear="true" to="3568" toLane="1"/>
	<connection contPos="-4.0" from="3568" fromLane="1" keepClear="true" to="3680" toLane="1"/>
	<connection contPos="-4.0" from="3568" fromLane="1" keepClear="true" to="3632" toLane="0"/>
	<connection contPos="-4.0" from="3632" fromLane="0" keepClear="true" to="3652" toLane="0"/>
	<connection contPos="-4.0" from="3652" fromLane="0" keepClear="true" to="3616" toLane="0"/>
	<connection contPos="-4.0" from="3616" fromLane="0" keepClear="true" to="3456" toLane="0"/>
	<connection contPos="-4.0" from="3680" fromLane="1" keepClear="true" to="3525" toLane="1"/>
	<connection contPos="-4.0" from="3555" fromLane="0" keepClear="true" to="3559" toLane="0"/>
	<connection contPos="-4.0" from="3559" fromLane="0" keepClear="true" to="3568" toLane="0"/>
	<connection contPos="-4.0" from="3568" fromLane="0" keepClear="true" to="3680" toLane="0"/>
	<connection contPos="-4.0" from="3680" fromLane="0" keepClear="true" to="3525" toLane="0"/>
	<connection contPos="-4.0" from="3705" fromLane="4" keepClear="true" to="3426" toLane="4"/>
	<connection contPos="-4.0" from="3426" fromLane="4" keepClear="true" to="3438" toLane="5"/>
	<connection contPos="-4.0" from="3438" fromLane="5" keepClear="true" to="3450" toLane="5"/>
	<connection contPos="-4.0" from="3450" fromLane="5" keepClear="true" to="3664" toLane="1"/>
	<connection contPos="-4.0" from="3664" fromLane="1" keepClear="true" to="3525" toLane="2"/>
	<connection contPos="-4.0" from="3705" fromLane="3" keepClear="true" to="3426" toLane="3"/>
	<connection contPos="-4.0" from="3426" fromLane="3" keepClear="true" to="3438" toLane="4"/>
	<connection contPos="-4.0" from="3438" fromLane="4" keepClear="true" to="3450" toLane="4"/>
	<connection contPos="-4.0" from="3450" fromLane="4" keepClear="true" to="3664" toLane="0"/>
	<connection contPos="-4.0" from="3664" fromLane="0" keepClear="true" to="3525" toLane="1"/>
	<connection contPos="-4.0" from="3705" fromLane="2" keepClear="true" to="3426" toLane="2"/>
	<connection contPos="-4.0" from="3426" fromLane="2" keepClear="true" to="3438" toLane="3"/>
	<connection contPos="-4.0" from="3438" fromLane="3" keepClear="true" to="3450" toLane="3"/>
	<connection contPos="-4.0" from="3450" fromLane="3" keepClear="true" to="3610" toLane="2"/>
	<connection contPos="-4.0" from="3610" fromLane="2" keepClear="true" to="3646" toLane="2"/>
	<connection contPos="-4.0" from="3646" fromLane="2" keepClear="true" to="3626" toLane="2"/>
	<connection contPos="-4.0" from="3626" fromLane="2" keepClear="true" to="3542" toLane="2"/>
	<connection contPos="-4.0" from="3705" fromLane="1" keepClear="true" to="3426" toLane="1"/>
	<connection contPos="-4.0" from="3426" fromLane="1" keepClear="true" to="3438" toLane="2"/>
	<connection contPos="-4.0" from="3438" fromLane="2" keepClear="true" to="3450" toLane="2"/>
	<connection contPos="-4.0" from="3450" fromLane="2" keepClear="true" to="3610" toLane="1"/>
	<connection contPos="-4.0" from="3610" fromLane="1" keepClear="true" to="3646" toLane="1"/>
	<connection contPos="-4.0" from="3646" fromLane="1" keepClear="true" to="3626" toLane="1"/>
	<connection contPos="-4.0" from="3626" fromLane="1" keepClear="true" to="3542" toLane="1"/>
	<connection contPos="-4.0" from="3705" fromLane="0" keepClear="true" to="3426" toLane="0"/>
	<connection contPos="-4.0" from="3426" fromLane="0" keepClear="true" to="3438" toLane="0"/>
	<connection contPos="-4.0" from="3426" fromLane="0" keepClear="true" to="3438" toLane="1"/>
	<connection contPos="-4.0" from="3438" fromLane="1" keepClear="true" to="3450" toLane="1"/>
	<connection contPos="-4.0" from="3450" fromLane="1" keepClear="true" to="3610" toLane="0"/>
	<connection contPos="-4.0" from="3610" fromLane="0" keepClear="true" to="3646" toLane="0"/>
	<connection contPos="-4.0" from="3646" fromLane="0" keepClear="true" to="3626" toLane="0"/>
	<connection contPos="-4.0" from="3626" fromLane="0" keepClear="true" to="3542" toLane="0"/>
	<connection contPos="-4.0" from="3438" fromLane="0" keepClear="true" to="3450" toLane="0"/>
	<connection contPos="-4.0" from="3450" fromLane="0" keepClear="true" to="3604" toLane="0"/>
	<connection contPos="-4.0" from="3604" fromLane="0" keepClear="true" to="3517" toLane="0"/>
</connections>
