<!-- generated on 2020-12-18 15:58:11.646587 by ipykernel_launcher.py v1_2_0+5214-53edc58fcd
-->
<edges>
	<edge from="1" function="normal" id="3498" length="9.586095898357163" numLanes="1" priority="1" speed="36.11111111111111" spreadType="center" to="2">
		<lane allow="moped bicycle pedestrian custom1 trailer evehicle rail_urban ship private truck vip custom2 authority delivery rail_electric taxi tram army hov coach motorcycle passenger bus rail emergency" index="0" length="9.586095898357163" shape="53.83525,19.0832 44.2545,19.4033" speed="36.11111111111111" width="4.771086938004798"/>
	</edge>
	<edge from="2" function="normal" id="3716" length="18.68014790163227" numLanes="1" priority="1" speed="36.11111111111111" spreadType="center" to="3">
		<lane allow="moped bicycle pedestrian custom1 trailer evehicle rail_urban ship private vip custom2 authority delivery rail_electric taxi tram army hov coach motorcycle passenger rail emergency" index="0" length="18.68014790163227" shape="44.2545,19.4033 40.27065,20.8447 37.41505,23.34735 36.363550000000004,25.73745 35.6609,27.7657 35.8059,30.9107 36.79705,33.46565" speed="36.11111111111111" width="3.353872355949164"/>
	</edge>
	<edge from="4" function="normal" id="3509" length="15.632980848532547" numLanes="3" priority="1" speed="36.11111111111111" spreadType="center" to="5">
		<lane allow="moped bicycle pedestrian custom1 trailer evehicle rail_urban ship private truck vip custom2 authority delivery rail_electric taxi tram army hov coach motorcycle passenger bus rail emergency" index="0" length="15.632980848532547" shape="-56.9578,-45.93615 -52.5616,-48.117000000000004 -42.95115,-52.900549999999996" speed="36.11111111111111" width="3.2317602711216056"/>
		<lane allow="moped bicycle pedestrian custom1 trailer evehicle rail_urban ship private truck vip custom2 authority delivery rail_electric taxi tram army hov coach motorcycle passenger bus rail emergency" index="1" length="15.632980848532547" shape="-55.56825,-43.135099999999994 -51.13085,-45.3364 -41.52035,-50.11995" speed="36.11111111111111" width="3.0217924167619463"/>
		<lane allow="moped bicycle pedestrian custom1 trailer evehicle rail_urban ship private truck vip custom2 authority delivery rail_electric taxi tram army hov coach motorcycle passenger bus rail emergency" index="2" length="15.632980848532547" shape="-54.2171,-40.41145 -49.724500000000006,-42.640100000000004 -40.2136,-47.360699999999994" speed="36.11111111111111" width="3.058956104621312"/>
	</edge>
	<edge from="5" function="normal" id="3672" length="43.42964317851892" numLanes="1" priority="1" speed="36.11111111111111" spreadType="center" to="6">
		<lane allow="moped bicycle pedestrian custom1 trailer evehicle rail_urban ship private vip custom2 authority delivery rail_electric taxi tram army hov coach motorcycle passenger rail emergency" index="0" length="43.42964317851892" shape="-40.2136,-47.360699999999994 -35.0564,-49.90105 -31.473599999999998,-51.385549999999995 -27.62775,-52.7442 -24.84705,-53.7145 -22.3611,-54.211349999999996 -20.12625,-54.42375 -17.79005,-54.30675 -16.14555,-54.17235 -15.036100000000001,-53.9161 -14.096350000000001,-53.3331 -13.1771,-51.9829 -12.0214,-50.054550000000006 -9.353950000000001,-45.817099999999996 -7.780200000000001,-42.76535 -6.308450000000001,-39.6532" speed="36.11111111111111" width="2.917182176347579"/>
	</edge>
	<edge from="6" function="normal" id="3456" length="24.710920579823167" numLanes="3" priority="1" speed="36.11111111111111" spreadType="center" to="7">
		<lane allow="moped bicycle pedestrian custom1 trailer evehicle rail_urban ship private truck vip custom2 authority delivery rail_electric taxi tram army hov coach motorcycle passenger bus rail emergency" index="0" length="24.710920579823167" shape="-0.7817999999999998,-42.4129 2.814,-35.219300000000004 6.66735,-27.3022 10.030000000000001,-20.1938" speed="36.11111111111111" width="3.0476685974692215"/>
		<lane allow="moped bicycle pedestrian custom1 trailer evehicle rail_urban ship private truck vip custom2 authority delivery rail_electric taxi tram army hov coach motorcycle passenger bus rail emergency" index="1" length="24.710920579823167" shape="-3.6106499999999997,-41.01865 0.24945000000000006,-33.451750000000004 3.9277,-25.88615 7.36655,-18.8557" speed="36.11111111111111" width="2.91482411304696"/>
		<lane allow="moped bicycle pedestrian custom1 trailer evehicle rail_urban ship private truck vip custom2 authority delivery rail_electric taxi tram army hov coach motorcycle passenger bus rail emergency" index="2" length="24.710920579823167" shape="-6.308450000000001,-39.6532 -2.37995,-31.891 1.4085,-24.188450000000003 4.78005,-17.54185" speed="36.11111111111111" width="2.8880043801905826"/>
	</edge>
	<edge from="7" function="normal" id="3462" length="8.466645302154802" numLanes="3" priority="1" speed="36.11111111111111" spreadType="center" to="8">
		<lane allow="moped bicycle pedestrian custom1 trailer evehicle rail_urban ship private truck vip custom2 authority delivery rail_electric taxi tram army hov coach motorcycle passenger bus rail emergency" index="0" length="8.466645302154802" shape="10.030000000000001,-20.1938 13.9093,-12.63105" speed="36.11111111111111" width="3.0476685974692215"/>
		<lane allow="moped bicycle pedestrian custom1 trailer evehicle rail_urban ship private truck vip custom2 authority delivery rail_electric taxi tram army hov coach motorcycle passenger bus rail emergency" index="1" length="8.466645302154802" shape="7.36655,-18.8557 11.184650000000001,-11.246" speed="36.11111111111111" width="2.91482411304696"/>
		<lane allow="moped bicycle pedestrian custom1 trailer evehicle rail_urban ship private truck vip custom2 authority delivery rail_electric taxi tram army hov coach motorcycle passenger bus rail emergency" index="2" length="8.466645302154802" shape="4.78005,-17.54185 8.5207,-9.94635" speed="36.11111111111111" width="2.8880043801905826"/>
	</edge>
	<edge from="8" function="normal" id="3468" length="22.238196627283088" numLanes="3" priority="1" speed="36.11111111111111" spreadType="center" to="9">
		<lane allow="moped bicycle pedestrian custom1 trailer evehicle rail_urban ship private truck vip custom2 authority delivery rail_electric taxi tram army hov coach motorcycle passenger bus rail emergency" index="0" length="22.238196627283088" shape="13.9093,-12.63105 18.50865,-3.3395 23.8853,7.3415" speed="36.11111111111111" width="3.0326639856733237"/>
		<lane allow="moped bicycle pedestrian custom1 trailer evehicle rail_urban ship private truck vip custom2 authority delivery rail_electric taxi tram army hov coach motorcycle passenger bus rail emergency" index="1" length="22.238196627283088" shape="11.184650000000001,-11.246 15.8309,-1.9242499999999998 21.08275,8.681550000000001" speed="36.11111111111111" width="2.998011102381044"/>
		<lane allow="moped bicycle pedestrian custom1 trailer evehicle rail_urban ship private truck vip custom2 authority delivery rail_electric taxi tram army hov coach motorcycle passenger bus rail emergency" index="2" length="22.238196627283088" shape="8.5207,-9.94635 13.137049999999999,-0.5472999999999999 18.3264,10.01325" speed="36.11111111111111" width="2.9350875710956217"/>
	</edge>
	<edge from="9" function="normal" id="3713" length="29.14281680783744" numLanes="3" priority="1" speed="36.11111111111111" spreadType="center" to="10">
		<lane allow="moped bicycle pedestrian custom1 trailer evehicle rail_urban ship private truck vip custom2 authority delivery rail_electric taxi tram army hov coach motorcycle passenger bus rail emergency" index="0" length="29.14281680783744" shape="23.8853,7.3415 27.801450000000003,15.33465 31.74805,23.2812 35.504149999999996,30.891849999999998 36.677499999999995,33.5244" speed="36.11111111111111" width="3.157633506282829"/>
		<lane allow="moped bicycle pedestrian custom1 trailer evehicle rail_urban ship private truck vip custom2 authority delivery rail_electric taxi tram army hov coach motorcycle passenger rail emergency" index="1" length="29.14281680783744" shape="21.08275,8.681550000000001 24.52025,15.61955 28.46675,23.56615 32.6374,32.06345 33.922399999999996,34.8778" speed="36.11111111111111" width="2.9348672269797813"/>
		<lane allow="moped bicycle pedestrian custom1 trailer evehicle rail_urban ship private truck vip custom2 authority delivery rail_electric taxi tram army hov coach motorcycle passenger bus rail emergency" index="2" length="29.14281680783744" shape="18.3264,10.01325 21.159,15.7133 24.99375,23.4152 29.8323,33.22655 31.21845,36.206050000000005" speed="36.11111111111111" width="3.0673220453679138"/>
	</edge>
	<edge from="5" function="normal" id="3636" length="10.13044496320374" numLanes="2" priority="1" speed="36.11111111111111" spreadType="center" to="11">
		<lane allow="moped bicycle pedestrian custom1 trailer evehicle rail_urban ship private truck vip custom2 authority delivery rail_electric taxi tram army hov coach motorcycle passenger bus rail emergency" index="0" length="10.13044496320374" shape="-42.95115,-52.900549999999996 -33.94005,-57.585899999999995" speed="36.11111111111111" width="3.2321866189934005"/>
		<lane allow="moped bicycle pedestrian custom1 trailer evehicle rail_urban ship private truck vip custom2 authority delivery rail_electric taxi tram army hov coach motorcycle passenger bus rail emergency" index="1" length="10.13044496320374" shape="-41.52035,-50.11995 -32.49565,-54.7222" speed="36.11111111111111" width="3.0254656269738045"/>
	</edge>
	<edge from="11" function="normal" id="3658" length="24.834013362889845" numLanes="2" priority="1" speed="36.11111111111111" spreadType="center" to="12">
		<lane allow="moped bicycle pedestrian custom1 trailer evehicle rail_urban ship private truck vip custom2 authority delivery rail_electric taxi tram army hov coach motorcycle passenger bus rail emergency" index="0" length="24.834013362889845" shape="-33.94005,-57.585899999999995 -31.044249999999998,-59.0918 -28.38875,-60.47255 -25.671799999999998,-61.88525 -22.683500000000002,-63.43915 -19.98185,-64.84405000000001 -17.33715,-66.2192 -14.6216,-67.6312 -11.84985,-69.07245" speed="36.11111111111111" width="3.30890878840744"/>
		<lane allow="moped bicycle pedestrian custom1 trailer evehicle rail_urban ship private truck vip custom2 authority delivery rail_electric taxi tram army hov coach motorcycle passenger bus rail emergency" index="1" length="24.834013362889845" shape="-32.49565,-54.7222 -29.627650000000003,-56.184799999999996 -26.95665,-57.54685 -24.21835,-58.943200000000004 -21.25375,-60.45495 -18.543300000000002,-61.837199999999996 -15.893350000000002,-63.18845 -13.1589,-64.58275 -10.3721,-66.0039" speed="36.11111111111111" width="3.1057834261261656"/>
	</edge>
	<edge from="12" function="normal" id="3676" length="16.155928389455166" numLanes="2" priority="1" speed="36.11111111111111" spreadType="center" to="13">
		<lane allow="moped bicycle pedestrian custom1 trailer evehicle rail_urban ship private truck vip custom2 authority delivery rail_electric taxi tram army hov coach motorcycle passenger bus rail emergency" index="0" length="16.155928389455166" shape="-11.84985,-69.07245 -5.83015,-72.0787 2.6039000000000003,-76.2907" speed="36.11111111111111" width="3.503454903377516"/>
		<lane allow="moped bicycle pedestrian custom1 trailer evehicle rail_urban ship private truck vip custom2 authority delivery rail_electric taxi tram army hov coach motorcycle passenger bus rail emergency" index="1" length="16.155928389455166" shape="-10.3721,-66.0039 -4.34745,-68.9892 4.14875,-73.1991" speed="36.11111111111111" width="3.3082245268421633"/>
	</edge>
	<edge from="13" function="normal" id="3525" length="17.28043527267281" numLanes="3" priority="1" speed="36.11111111111111" spreadType="center" to="14">
		<lane allow="moped bicycle pedestrian custom1 trailer evehicle rail_urban ship private truck vip custom2 authority delivery rail_electric taxi tram army hov coach motorcycle passenger bus rail emergency" index="0" length="17.28043527267281" shape="0.98085,-79.6188 9.70815,-83.91385 16.49645,-87.25465" speed="36.11111111111111" width="3.8739027478758423"/>
		<lane allow="moped bicycle pedestrian custom1 trailer evehicle rail_urban ship private truck vip custom2 authority delivery rail_electric taxi tram army hov coach motorcycle passenger bus rail emergency" index="1" length="17.28043527267281" shape="2.6039000000000003,-76.2907 11.33105,-80.58425 18.1303,-83.9293" speed="36.11111111111111" width="3.5117895381130064"/>
		<lane allow="moped bicycle pedestrian custom1 trailer evehicle rail_urban ship private truck vip custom2 authority delivery rail_electric taxi tram army hov coach motorcycle passenger bus rail emergency" index="2" length="17.28043527267281" shape="4.14875,-73.1991 12.827549999999999,-77.46770000000001 19.6551,-80.8258" speed="36.11111111111111" width="3.3794967495175916"/>
	</edge>
	<edge from="5" function="normal" id="3600" length="24.197467511365538" numLanes="1" priority="1" speed="36.11111111111111" spreadType="center" to="15">
		<lane allow="moped bicycle pedestrian custom1 trailer evehicle rail_urban ship private vip custom2 authority delivery rail_electric taxi tram army hov coach motorcycle passenger rail emergency" index="0" length="24.197467511365538" shape="-42.95115,-52.900549999999996 -38.46285,-55.2955 -36.46985,-56.485600000000005 -34.8668,-57.3962 -34.1237,-57.876149999999996 -33.699600000000004,-58.46375 -33.6638,-59.270700000000005 -34.071,-60.6823 -34.8719,-62.64845 -35.85235,-64.74680000000001 -38.645250000000004,-70.74875" speed="36.11111111111111" width="3.2321866189934005"/>
	</edge>
	<edge from="15" function="normal" id="3542" length="74.2461753523541" numLanes="3" priority="1" speed="36.11111111111111" spreadType="center" to="16">
		<lane allow="moped bicycle pedestrian custom1 trailer evehicle rail_urban ship private truck vip custom2 authority delivery rail_electric taxi tram army hov coach motorcycle passenger bus rail emergency" index="0" length="74.2461753523541" shape="-38.645250000000004,-70.74875 -42.80655,-79.28745 -46.8598,-88.21745 -50.63185,-96.93595 -54.256600000000006,-106.1799 -57.971599999999995,-115.23775 -61.65525,-124.26535 -65.33930000000001,-133.3238 -67.62635,-139.1198" speed="36.11111111111111" width="2.8235974571457674"/>
		<lane allow="moped bicycle pedestrian custom1 trailer evehicle rail_urban ship private truck vip custom2 authority delivery rail_electric taxi tram army hov coach motorcycle passenger bus rail emergency" index="1" length="74.2461753523541" shape="-35.8016,-72.2414 -40.045,-80.7962 -44.12715,-89.5796 -47.8678,-98.2678 -51.5218,-107.38810000000001 -55.1749,-116.44694999999999 -58.826350000000005,-125.3826 -62.417649999999995,-134.4424 -64.8089,-140.5661" speed="36.11111111111111" width="2.9693589611227496"/>
		<lane allow="moped bicycle pedestrian custom1 trailer evehicle rail_urban ship private truck vip custom2 authority delivery rail_electric taxi tram army hov coach motorcycle passenger bus rail emergency" index="2" length="74.2461753523541" shape="-33.15355,-73.63135 -37.37635,-82.3113 -41.4267,-91.0336 -45.19825,-99.72139999999999 -48.6931,-108.52074999999999 -52.348600000000005,-117.74885 -56.00045,-126.71535 -59.46725,-135.71525 -61.9784,-142.01915" speed="36.11111111111111" width="2.9622015478356603"/>
	</edge>
	<edge from="17" function="normal" id="3532" length="13.634900230131375" numLanes="2" priority="1" speed="36.11111111111111" spreadType="center" to="18">
		<lane allow="moped bicycle pedestrian custom1 trailer evehicle rail_urban ship private truck vip custom2 authority delivery rail_electric taxi tram army hov coach motorcycle passenger bus rail emergency" index="0" length="13.634900230131375" shape="24.2008,-71.57395 17.26815,-68.1851 11.92375,-65.57254999999999" speed="36.11111111111111" width="3.6072313177837603"/>
		<lane allow="moped bicycle pedestrian custom1 trailer evehicle rail_urban ship private truck vip custom2 authority delivery rail_electric taxi tram army hov coach motorcycle passenger bus rail emergency" index="1" length="13.634900230131375" shape="22.59615,-74.8399 15.737649999999999,-71.4867 10.3468,-68.85125" speed="36.11111111111111" width="3.62354650170243"/>
	</edge>
	<edge from="18" function="normal" id="3534" length="6.5755773961303206" numLanes="3" priority="1" speed="36.11111111111111" spreadType="center" to="19">
		<lane allow="moped bicycle pedestrian custom1 trailer evehicle rail_urban ship private truck vip custom2 authority delivery rail_electric taxi tram army hov coach motorcycle passenger bus rail emergency" index="0" length="6.5755773961303206" shape="11.92375,-65.57254999999999 7.5009,-59.5507" speed="36.11111111111111" width="3.24573724136751"/>
		<lane allow="moped bicycle pedestrian custom1 trailer evehicle rail_urban ship private truck vip custom2 authority delivery rail_electric taxi tram army hov coach motorcycle passenger bus rail emergency" index="1" length="6.5755773961303206" shape="11.92375,-65.57254999999999 6.01175,-62.632549999999995" speed="36.11111111111111" width="3.602433613545158"/>
		<lane allow="moped bicycle pedestrian custom1 trailer evehicle rail_urban ship private truck vip custom2 authority delivery rail_electric taxi tram army hov coach motorcycle passenger bus rail emergency" index="2" length="6.5755773961303206" shape="10.3468,-68.85125 4.45875,-65.92394999999999" speed="36.11111111111111" width="3.6713079753679065"/>
	</edge>
	<edge from="19" function="normal" id="3536" length="6.6083636571393365" numLanes="3" priority="1" speed="36.11111111111111" spreadType="center" to="20">
		<lane allow="moped bicycle pedestrian custom1 trailer evehicle rail_urban ship private truck vip custom2 authority delivery rail_electric taxi tram army hov coach motorcycle passenger bus rail emergency" index="0" length="6.6083636571393365" shape="7.5009,-59.5507 1.52135,-56.661249999999995" speed="36.11111111111111" width="3.190167196245363"/>
		<lane allow="moped bicycle pedestrian custom1 trailer evehicle rail_urban ship private truck vip custom2 authority delivery rail_electric taxi tram army hov coach motorcycle passenger bus rail emergency" index="1" length="6.6083636571393365" shape="6.01175,-62.632549999999995 0.0716,-59.687799999999996" speed="36.11111111111111" width="3.521568769738851"/>
		<lane allow="moped bicycle pedestrian custom1 trailer evehicle rail_urban ship private truck vip custom2 authority delivery rail_electric taxi tram army hov coach motorcycle passenger bus rail emergency" index="2" length="6.6083636571393365" shape="4.45875,-65.92394999999999 -1.4512999999999998,-62.967299999999994" speed="36.11111111111111" width="3.677371487897296"/>
	</edge>
	<edge from="20" function="normal" id="3620" length="6.669397413559939" numLanes="2" priority="1" speed="36.11111111111111" spreadType="center" to="21">
		<lane allow="moped bicycle pedestrian custom1 trailer evehicle rail_urban ship private truck vip custom2 authority delivery rail_electric taxi tram army hov coach motorcycle passenger bus rail emergency" index="0" length="6.669397413559939" shape="0.0716,-59.687799999999996 -5.9059,-56.729699999999994" speed="36.11111111111111" width="3.4558219456447676"/>
		<lane allow="moped bicycle pedestrian custom1 trailer evehicle rail_urban ship private truck vip custom2 authority delivery rail_electric taxi tram army hov coach motorcycle passenger bus rail emergency" index="1" length="6.669397413559939" shape="-1.4512999999999998,-62.967299999999994 -7.45875,-59.9542" speed="36.11111111111111" width="3.7020390124902796"/>
	</edge>
	<edge from="21" function="normal" id="3662" length="24.644895567956993" numLanes="2" priority="1" speed="36.11111111111111" spreadType="center" to="22">
		<lane allow="moped bicycle pedestrian custom1 trailer evehicle rail_urban ship private truck vip custom2 authority delivery rail_electric taxi tram army hov coach motorcycle passenger bus rail emergency" index="0" length="24.644895567956993" shape="-5.9059,-56.729699999999994 -8.72245,-55.33585 -11.49925,-53.9617 -14.14865,-52.6505 -16.87075,-51.30335 -19.742449999999998,-49.882149999999996 -22.53125,-48.501999999999995 -25.2333,-47.1648 -27.9939,-45.798500000000004" speed="36.11111111111111" width="3.2133408160355486"/>
		<lane allow="moped bicycle pedestrian custom1 trailer evehicle rail_urban ship private truck vip custom2 authority delivery rail_electric taxi tram army hov coach motorcycle passenger bus rail emergency" index="1" length="24.644895567956993" shape="-7.45875,-59.9542 -10.26325,-58.5475 -13.0238,-57.163650000000004 -15.671850000000001,-55.835 -18.388550000000002,-54.47355 -21.29035,-53.015950000000004 -24.0591,-51.62585 -26.74895,-50.276650000000004 -29.5455,-48.873599999999996" speed="36.11111111111111" width="3.675404375031404"/>
	</edge>
	<edge from="22" function="normal" id="3640" length="10.509859510002974" numLanes="2" priority="1" speed="36.11111111111111" spreadType="center" to="23">
		<lane allow="moped bicycle pedestrian custom1 trailer evehicle rail_urban ship private truck vip custom2 authority delivery rail_electric taxi tram army hov coach motorcycle passenger bus rail emergency" index="0" length="10.509859510002974" shape="-27.9939,-45.798500000000004 -37.8274,-40.9771" speed="36.11111111111111" width="3.1673785817296913"/>
		<lane allow="moped bicycle pedestrian custom1 trailer evehicle rail_urban ship private truck vip custom2 authority delivery rail_electric taxi tram army hov coach motorcycle passenger bus rail emergency" index="1" length="10.509859510002974" shape="-29.5455,-48.873599999999996 -38.9631,-44.2082" speed="36.11111111111111" width="3.675404375031404"/>
	</edge>
	<edge from="23" function="normal" id="3517" length="14.496753904957336" numLanes="3" priority="1" speed="36.11111111111111" spreadType="center" to="24">
		<lane allow="moped bicycle pedestrian custom1 trailer evehicle rail_urban ship private truck vip custom2 authority delivery rail_electric taxi tram army hov coach motorcycle passenger bus rail emergency" index="0" length="14.496753904957336" shape="-36.1101,-36.52315 -45.3236,-32.08375 -49.072100000000006,-30.0399" speed="36.11111111111111" width="5.130906839926054"/>
		<lane allow="moped bicycle pedestrian custom1 trailer evehicle rail_urban ship private truck vip custom2 authority delivery rail_electric taxi tram army hov coach motorcycle passenger bus rail emergency" index="1" length="14.496753904957336" shape="-37.8274,-40.9771 -47.21785,-35.935050000000004 -50.90335,-33.73135" speed="36.11111111111111" width="3.110520139783699"/>
		<lane allow="moped bicycle pedestrian custom1 trailer evehicle rail_urban ship private truck vip custom2 authority delivery rail_electric taxi tram army hov coach motorcycle passenger bus rail emergency" index="2" length="14.496753904957336" shape="-38.9631,-44.2082 -48.7448,-38.96055 -52.4102,-36.7689" speed="36.11111111111111" width="3.664585112942531"/>
	</edge>
	<edge from="20" function="normal" id="3668" length="38.24329000786905" numLanes="1" priority="1" speed="36.11111111111111" spreadType="center" to="15">
		<lane allow="moped bicycle pedestrian custom1 trailer evehicle rail_urban ship private vip custom2 authority delivery rail_electric taxi tram army hov coach motorcycle passenger rail emergency" index="0" length="38.24329000786905" shape="-1.4512999999999998,-62.967299999999994 -4.788349999999999,-61.8586 -7.7225,-61.05175 -10.218150000000001,-60.30415 -12.6335,-60.0006 -14.83535,-59.91565 -16.37155,-60.044 -18.3418,-60.2508 -19.9459,-60.52815 -21.893700000000003,-60.841499999999996 -23.7024,-61.5985 -25.2383,-62.848600000000005 -26.677950000000003,-64.7582 -29.37825,-68.43594999999999 -33.15355,-73.63135" speed="36.11111111111111" width="3.0119886487169927"/>
	</edge>
	<edge from="20" function="normal" id="3602" length="16.40731935125664" numLanes="1" priority="1" speed="36.11111111111111" spreadType="center" to="6">
		<lane allow="moped bicycle pedestrian custom1 trailer evehicle rail_urban ship private vip custom2 authority delivery rail_electric taxi tram army hov coach motorcycle passenger rail emergency" index="0" length="16.40731935125664" shape="1.52135,-56.661249999999995 -0.33125,-55.3771 -1.4813,-54.160399999999996 -2.409,-52.5314 -2.9864499999999996,-50.7227 -3.04435,-49.35225 -2.6818999999999997,-47.226 -1.8308,-44.85075 -0.7817999999999998,-42.4129" speed="36.11111111111111" width="2.934720000272598"/>
	</edge>
	<edge from="9" function="normal" id="3718" length="22.831237741532025" numLanes="1" priority="1" speed="36.11111111111111" spreadType="center" to="25">
		<lane allow="moped bicycle pedestrian custom1 trailer evehicle rail_urban ship private vip custom2 authority delivery rail_electric taxi tram army hov coach motorcycle passenger rail emergency" index="0" length="22.831237741532025" shape="23.8853,7.3415 26.506999999999998,10.7132 28.57175,12.6284 31.165550000000003,13.8021 35.79385,14.206 44.043800000000005,14.343250000000001" speed="36.11111111111111" width="3.157633506282829"/>
	</edge>
	<edge from="25" function="normal" id="3500" length="9.586145870473699" numLanes="1" priority="1" speed="36.11111111111111" spreadType="center" to="26">
		<lane allow="moped bicycle pedestrian custom1 trailer evehicle rail_urban ship private truck vip custom2 authority delivery rail_electric taxi tram army hov coach motorcycle passenger bus rail emergency" index="0" length="9.586145870473699" shape="44.043800000000005,14.343250000000001 53.6246,14.023150000000001" speed="36.11111111111111" width="5.358070392408074"/>
	</edge>
	<edge from="27" function="normal" id="3555" length="8.747302513489485" numLanes="4" priority="1" speed="36.11111111111111" spreadType="center" to="28">
		<lane allow="moped bicycle pedestrian custom1 trailer evehicle rail_urban ship private truck vip custom2 authority delivery rail_electric taxi tram army hov coach motorcycle passenger bus rail emergency" index="0" length="8.747302513489485" shape="-49.3069,-148.52409999999998 -45.3307,-140.73275" speed="36.11111111111111" width="3.5111446353005746"/>
		<lane allow="moped bicycle pedestrian custom1 trailer evehicle rail_urban ship private truck vip custom2 authority delivery rail_electric taxi tram army hov coach motorcycle passenger bus rail emergency" index="1" length="8.747302513489485" shape="-52.250699999999995,-147.0129 -48.2203,-139.13094999999998" speed="36.11111111111111" width="2.9942633818687394"/>
		<lane allow="moped bicycle pedestrian custom1 trailer evehicle rail_urban ship private truck vip custom2 authority delivery rail_electric taxi tram army hov coach motorcycle passenger bus rail emergency" index="2" length="8.747302513489485" shape="-54.950199999999995,-145.62714999999997 -50.862,-137.5938" speed="36.11111111111111" width="3.0122116393108884"/>
		<lane allow="moped bicycle pedestrian custom1 trailer evehicle rail_urban ship private truck vip custom2 authority delivery rail_electric taxi tram army hov coach motorcycle passenger bus rail emergency" index="3" length="8.747302513489485" shape="-57.72815,-144.20105 -53.547200000000004,-136.1554" speed="36.11111111111111" width="3.0805742451692346"/>
	</edge>
	<edge from="28" function="normal" id="3559" length="17.692935382095456" numLanes="5" priority="1" speed="36.11111111111111" spreadType="center" to="29">
		<lane allow="moped bicycle pedestrian custom1 trailer evehicle rail_urban ship private truck vip custom2 authority delivery rail_electric taxi tram army hov coach motorcycle passenger bus rail emergency" index="0" length="17.692935382095456" shape="-45.3307,-140.73275 -41.985,-133.76510000000002 -37.47595,-124.68629999999999" speed="36.11111111111111" width="3.5111446353005746"/>
		<lane allow="moped bicycle pedestrian custom1 trailer evehicle rail_urban ship private truck vip custom2 authority delivery rail_electric taxi tram army hov coach motorcycle passenger bus rail emergency" index="1" length="17.692935382095456" shape="-48.2203,-139.13094999999998 -44.825500000000005,-132.2058 -40.2652,-123.09525" speed="36.11111111111111" width="2.891120158346933"/>
		<lane allow="moped bicycle pedestrian custom1 trailer evehicle rail_urban ship private truck vip custom2 authority delivery rail_electric taxi tram army hov coach motorcycle passenger bus rail emergency" index="2" length="17.692935382095456" shape="-50.862,-137.5938 -47.5155,-130.80644999999998 -42.955200000000005,-121.69595000000001" speed="36.11111111111111" width="3.0122116393108884"/>
		<lane allow="moped bicycle pedestrian custom1 trailer evehicle rail_urban ship private truck vip custom2 authority delivery rail_electric taxi tram army hov coach motorcycle passenger bus rail emergency" index="3" length="17.692935382095456" shape="-53.547200000000004,-136.1554 -50.186350000000004,-129.44525 -45.626000000000005,-120.3347" speed="36.11111111111111" width="2.8198292501497373"/>
		<lane allow="moped bicycle pedestrian custom1 trailer evehicle rail_urban ship private truck vip custom2 authority delivery rail_electric taxi tram army hov coach motorcycle passenger rail emergency" index="4" length="17.692935382095456" shape="-53.547200000000004,-136.1554 -51.714600000000004,-128.42025 -48.23375,-118.88194999999999" speed="36.11111111111111" width="2.9068515975192177"/>
	</edge>
	<edge from="29" function="normal" id="3568" length="47.08668512312134" numLanes="5" priority="1" speed="36.11111111111111" spreadType="center" to="30">
		<lane allow="moped bicycle pedestrian custom1 trailer evehicle rail_urban ship private truck vip custom2 authority delivery rail_electric taxi tram army hov coach motorcycle passenger bus rail emergency" index="0" length="47.08668512312134" shape="-37.47595,-124.68629999999999 -33.27695,-116.2313 -29.0193,-107.65674999999999 -24.580849999999998,-98.72075000000001 -20.282249999999998,-90.2598 -16.09675,-82.61070000000001" speed="36.11111111111111" width="3.3461488699697797"/>