<!-- generated on 2020-12-18 15:58:11.752511 by ipykernel_launcher.py v1_2_0+5214-53edc58fcd
-->
<nodes>
	<node id="1" type="from" x="53.83525" y="19.0832"/>
	<node id="2" type="to" x="44.2545" y="19.4033"/>
	<node id="3" type="to" x="36.79705" y="33.46565"/>
	<node id="4" type="from" x="-55.581050000000005" y="-43.1609"/>
	<node id="5" type="to" x="-41.561699999999995" y="-50.12706666666666"/>
	<node id="6" type="to" x="-6.308450000000001" y="-39.6532"/>
	<node id="7" type="to" x="7.3922" y="-18.86378333333333"/>
	<node id="8" type="to" x="11.204883333333333" y="-11.274466666666667"/>
	<node id="9" type="to" x="21.09815" y="8.678766666666666"/>
	<node id="10" type="to" x="33.93945" y="34.869416666666666"/>
	<node id="11" type="to" x="-33.21785" y="-56.15405"/>
	<node id="12" type="to" x="-11.110975" y="-67.538175"/>
	<node id="13" type="to" x="3.376325" y="-74.7449"/>
	<node id="14" type="to" x="18.093950000000003" y="-84.00325"/>
	<node id="15" type="to" x="-38.645250000000004" y="-70.74875"/>
	<node id="16" type="to" x="-64.80454999999999" y="-140.56835"/>
	<node id="17" type="from" x="23.398475" y="-73.206925"/>
	<node id="18" type="to" x="11.135275" y="-67.21189999999999"/>
	<node id="19" type="to" x="5.990466666666667" y="-62.70239999999999"/>
	<node id="20" type="to" x="0.04721666666666676" y="-59.77211666666667"/>
	<node id="21" type="to" x="-6.6823250000000005" y="-58.34195"/>
	<node id="22" type="to" x="-28.7697" y="-47.33605"/>
	<node id="23" type="to" x="-38.39525" y="-42.59265"/>
	<node id="24" type="to" x="-50.79521666666667" y="-33.51338333333333"/>
	<node id="25" type="to" x="44.043800000000005" y="14.343250000000001"/>
	<node id="26" type="to" x="53.6246" y="14.023150000000001"/>
	<node id="27" type="from" x="-53.55898749999999" y="-146.3413"/>
	<node id="28" type="to" x="-49.490050000000004" y="-138.403225"/>
	<node id="29" type="to" x="-42.91122" y="-121.73882999999998"/>
	<node id="30" type="to" x="-21.8564" y="-79.57406"/>
	<node id="31" type="to" x="-16.706916666666668" y="-68.50013333333334"/>
	<node id="32" type="to" x="-9.3469" y="-53.12463333333333"/>
	<node id="33" type="from" x="23.06406" y="40.21168"/>
	<node id="34" type="to" x="10.10542" y="13.836759999999998"/>
	<node id="35" type="to" x="0.3438500000000001" y="-5.84024"/>
	<node id="36" type="to" x="-4.830308333333332" y="-12.755816666666668"/>
	<node id="37" type="to" x="-15.826524999999998" y="-34.851791666666664"/>
	<node id="38" type="to" x="-23.158599999999996" y="-46.37373333333333"/>
	<node id="39" type="to" x="-30.4849" y="-61.26791666666666"/>
</nodes>
