<!-- generated on 2020-12-18 15:54:05.672707 by ipykernel_launcher.py v1_2_0+5214-53edc58fcd
-->
<edges>
	<edge from="1" function="normal" id="20" length="82.73235549683747" numLanes="5" priority="1" speed="36.11111111111111" spreadType="center" to="2">
		<lane allow="moped bicycle pedestrian custom1 trailer evehicle rail_urban ship private vip custom2 authority delivery rail_electric taxi tram army hov coach motorcycle passenger rail emergency" index="0" length="82.73235549683747" shape="-27.828049999999998,26.5354 -27.3995,26.11875 -19.90005,19.11195 -17.06235,16.34785 -12.522749999999998,12.10185 -9.0046,8.8575 -6.0991,6.163399999999999 1.7129,-0.95335 2.29315,-1.491 4.6549,-3.66265 11.9618,-10.277899999999999 12.7612,-11.0103 15.680399999999999,-13.72655 18.742649999999998,-16.4758 23.55605,-20.645 26.503549999999997,-23.289900000000003 28.051949999999998,-24.629350000000002 33.9901,-29.793349999999997 33.99955,-29.8016" speed="36.11111111111111" width="3.4518027826050517"/>
		<lane allow="moped bicycle pedestrian custom1 trailer evehicle rail_urban ship private vip custom2 authority delivery rail_electric taxi tram army hov coach motorcycle passenger rail emergency" index="1" length="82.73235549683747" shape="-25.389850000000003,28.97365 -25.0732,28.667099999999998 -19.55955,23.5444 -17.50625,21.5728 -16.7665,20.83305 -14.7708,18.9285 -8.766649999999998,13.42185 -6.6190999999999995,11.43055 -5.86235,10.7249 -3.7363,8.76175 1.9165999999999999,3.6334 4.1217500000000005,1.6126999999999998 4.81045,0.97055 6.98855,-1.0181499999999999 13.1223,-6.53245 15.193100000000001,-8.43375 16.0154,-9.20055 18.05385,-11.0576 23.8778,-16.1767 25.91395,-18.00985 26.7643,-18.802799999999998 28.76375,-20.609650000000002 34.8767,-25.9374 36.2749,-27.1946" speed="36.11111111111111" width="3.2505506856531254"/>
		<lane allow="moped bicycle pedestrian custom1 trailer evehicle rail_urban ship private truck vip custom2 authority delivery rail_electric taxi tram army hov coach motorcycle passenger bus rail emergency" index="2" length="82.73235549683747" shape="-22.995800000000003,31.367649999999998 -20.308799999999998,28.76755 -17.3213,25.985500000000002 -14.5064,23.2795 -12.251650000000001,21.20595 -9.3875,18.4725 -6.5242,15.879950000000001 -3.6172999999999997,13.21685 -1.0067000000000002,10.8478 1.9043999999999999,8.15985 4.1504,6.1137 7.05415,3.4423500000000002 9.78155,0.9850000000000001 12.70725,-1.68635 15.35285,-4.05545 18.25305,-6.7075499999999995 20.8169,-8.9991 23.745449999999998,-11.667 26.00895,-13.63355 28.93675,-16.23525 31.6996,-18.62025 34.6383,-21.276 37.077799999999996,-23.41885 38.469300000000004,-24.680349999999997" speed="36.11111111111111" width="3.189710972799889"/>
		<lane allow="moped bicycle pedestrian custom1 trailer evehicle rail_urban ship private truck vip custom2 authority delivery rail_electric taxi tram army hov coach motorcycle passenger rail emergency" index="3" length="82.73235549683747" shape="-20.603450000000002,33.76 -17.995449999999998,31.15475 -17.793,30.9618 -9.97065,23.674149999999997 -9.95815,23.66165 -7.16835,20.969 -6.9887,20.8012 1.00225,13.5491 1.2651,13.30785 3.88035,10.8691 4.14365,10.6256 11.850449999999999,3.59315 12.02025,3.4367 14.73295,0.9071 14.866200000000001,0.78555 22.876350000000002,-6.3823 23.05345,-6.54465 25.75185,-9.06095 25.87345,-9.1708 33.910650000000004,-16.09255 33.99495,-16.1687 36.84895,-18.827849999999998 36.967150000000004,-18.9341 40.6864,-22.1401" speed="36.11111111111111" width="3.2118758662189935"/>
		<lane allow="moped bicycle pedestrian custom1 trailer evehicle rail_urban ship private vip custom2 authority delivery rail_electric taxi tram army hov coach motorcycle passenger rail emergency" index="4" length="82.73235549683747" shape="-18.149900000000002,36.2136 -18.043,36.108850000000004 -15.38975,33.458650000000006 -15.1525,33.23015 -7.5238,26.074550000000002 -7.2385,25.80775 -4.63,23.37525 -4.327,23.0955 3.3184500000000003,16.1009 3.6092,15.8324 6.2299,13.38865 6.5311,13.110199999999999 14.154399999999999,6.1177 14.4449,5.849 17.064,3.40685 17.38495,3.11465 25.1628,-3.82665 25.455150000000003,-4.09335 28.0922,-6.55125 28.42855,-6.85365 36.278999999999996,-13.71285 36.5727,-13.97795 39.2238,-16.44775 39.58655,-16.7665 42.9219,-19.57875" speed="36.11111111111111" width="3.479396558312948"/>
	</edge>
	<edge from="2" function="normal" id="16" length="102.69728293674812" numLanes="6" priority="1" speed="36.11111111111111" spreadType="center" to="3">
		<lane allow="moped bicycle pedestrian custom1 trailer evehicle rail_urban ship private truck vip custom2 authority delivery rail_electric taxi tram army hov coach motorcycle passenger rail emergency" index="0" length="102.69728293674812" shape="31.533300000000004,-32.627300000000005 33.69755,-34.482299999999995 34.420950000000005,-35.12815 37.0908,-37.44215 37.81415,-38.088 40.51625,-40.466300000000004 41.239599999999996,-41.1122 43.957,-43.5008 44.680350000000004,-44.14665 47.3502,-46.4607 48.0736,-47.10655 48.80055,-47.737750000000005 50.804050000000004,-49.480149999999995 51.52695,-50.126599999999996 54.2104,-52.48735 54.9333,-53.133799999999994 57.68545,-55.5322 58.40835,-56.178650000000005 60.980050000000006,-58.4046 61.7029,-59.051050000000004 64.41975,-61.3826 65.14265,-62.028999999999996 67.98655,-64.53999999999999 68.70945,-65.18645000000001 71.36850000000001,-67.53944999999999 72.0914,-68.1859 74.90445,-70.60759999999999 75.62735,-71.25399999999999 78.25765,-73.55600000000001 78.9805,-74.20245 81.6884,-76.571 82.33295,-77.14789999999999 82.4148,-77.22025 85.23995,-79.60185 85.96355,-80.2474 88.58435,-82.60419999999999 89.30799999999999,-83.24969999999999 91.97890000000001,-85.56275 92.7025,-86.20830000000001 95.49535,-88.6562 96.21895,-89.30175 98.72919999999999,-91.46475000000001 99.45285000000001,-92.1103 102.22784999999999,-94.53565 102.95145,-95.18119999999999 105.64805,-97.44274999999999 106.3717,-98.08834999999999 108.80449999999999,-100.2667" speed="36.11111111111111" width="3.684874137606332"/>
		<lane allow="moped bicycle pedestrian custom1 trailer evehicle rail_urban ship private vip custom2 authority delivery rail_electric taxi tram army hov coach motorcycle passenger rail emergency" index="1" length="102.69728293674812" shape="33.99955,-29.8016 34.6054,-30.31845 36.18595,-31.721449999999997 36.89885,-32.379 37.538,-32.94945 39.38275,-34.47555 40.03735,-35.0303 40.1503,-35.121399999999994 40.742599999999996,-35.62025 40.924049999999994,-35.7853 43.01735,-37.679 43.03885,-37.698750000000004 43.73715,-38.343 43.8301,-38.4266 46.3935,-40.68055 47.0744,-41.28845 47.1439,-41.3487 49.80215,-43.6549 50.467299999999994,-44.2489 50.53075,-44.3042 51.001850000000005,-44.714600000000004 53.269149999999996,-46.7504 53.908699999999996,-47.34025 53.93295,-47.36165 60.0679,-52.639700000000005 60.74255,-53.2299 60.8407,-53.31335 61.7487,-54.08635 61.8134,-54.1463 63.481700000000004,-55.635850000000005 64.19455,-56.29345 64.71105,-56.74745 66.8606,-58.5814 67.51565,-59.163650000000004 67.56745000000001,-59.209 70.39975,-61.695750000000004 71.09015,-62.309 71.13980000000001,-62.3524 72.7515,-63.7708 73.8597,-64.7829 74.57265000000001,-65.4405 75.72605,-66.462 77.32165,-67.82135 77.96585,-68.39134999999999 78.03540000000001,-68.45155 80.6642,-70.7299 81.33269999999999,-71.32095000000001 81.4041,-71.3827 83.72540000000001,-73.39349999999999 83.74645000000001,-73.4119 84.13759999999999,-73.7525 84.86805000000001,-74.4029 86.8063,-76.0329 87.69839999999999,-76.78765 88.3657,-77.38395 90.9614,-79.7216 91.0111,-79.76555 91.70585,-80.3874 91.77575,-80.44800000000001 94.43255,-82.7542 94.57925,-82.88475 95.08539999999999,-83.3364 95.14245,-83.38635 97.6379,-85.57095000000001 97.964,-85.8603 98.68379999999999,-86.5103 101.1805,-88.6881 101.87219999999999,-89.31275 101.91425000000001,-89.3498 104.6605,-91.78014999999999 105.3803,-92.43015 106.33035,-93.2337 108.0547,-94.67904999999999 108.71549999999999,-95.26755 109.175,-95.67725 111.253,-97.5194" speed="36.11111111111111" width="3.504353214217994"/>
		<lane allow="moped bicycle pedestrian custom1 trailer evehicle rail_urban ship private vip custom2 authority delivery rail_electric taxi tram army hov coach motorcycle passenger rail emergency" index="2" length="102.69728293674812" shape="36.2749,-27.1946 36.880849999999995,-27.7407 37.763149999999996,-28.563499999999998 39.639250000000004,-30.231450000000002 39.802099999999996,-30.3644 43.17375,-33.134699999999995 45.69799999999999,-35.3728 45.8049,-35.47145 46.1746,-35.812 46.23095,-35.86175 48.79785,-38.17945 53.257149999999996,-42.028000000000006 56.12685,-44.58525 56.2448,-44.68595 56.8826,-45.2303 56.95895,-45.300700000000006 59.85615,-47.8645 64.04105,-51.419 66.88585,-53.962900000000005 66.98325,-54.04705 67.9887,-54.9166 70.93905000000001,-57.567899999999995 75.0471,-61.091049999999996 77.90655000000001,-63.6353 78.0185,-63.73115 79.13215,-64.68599999999999 79.19125,-64.7407 82.0889,-67.3312 86.0546,-70.8009 89.02844999999999,-73.41919999999999 90.15145000000001,-74.4111 93.12955,-77.00855 96.9443,-80.33834999999999 99.94005,-82.9445 101.04755,-83.92125 104.01745,-86.53905 108.54335,-90.54235 108.57385,-90.5689 111.55535,-93.17009999999999 112.14795000000001,-93.68235 113.57589999999999,-94.91295" speed="36.11111111111111" width="3.216879682238673"/>
		<lane allow="moped bicycle pedestrian custom1 trailer evehicle rail_urban ship private truck vip custom2 authority delivery rail_electric taxi tram army hov coach motorcycle passenger rail emergency" index="3" length="102.69728293674812" shape="38.469300000000004,-24.680349999999997 39.94,-26.0134 40.04025,-26.09965 42.91655,-28.5843 45.8787,-31.2138 48.01405,-33.0184 50.8507,-35.5376 50.96925,-35.638400000000004 53.98205,-38.200050000000005 56.93995,-40.83675 59.0819,-42.6864 61.9431,-45.2712 62.0339,-45.34985 65.0974,-48.00615 68.05045,-50.6468 70.09235000000001,-52.36955 72.95515,-54.88755 73.08725,-54.99845 76.22295,-57.6369 79.18315,-60.271550000000005 81.34774999999999,-62.13195 84.20429999999999,-64.7045 84.2753,-64.76689999999999 87.45515,-67.56880000000001 90.38319999999999,-70.23885 92.26644999999999,-71.8905 92.30345,-71.92255 95.29365,-74.51185 98.5144,-77.3023 98.5256,-77.3121 101.5161,-79.9136 103.28835,-81.4761 106.26155,-84.095 109.4569,-86.91945 112.44284999999999,-89.52420000000001 114.3255,-91.19 115.7638,-92.45805" speed="36.11111111111111" width="3.1175293182262114"/>
		<lane allow="moped bicycle pedestrian custom1 trailer evehicle rail_urban ship private vip custom2 authority delivery rail_electric taxi tram army hov coach motorcycle passenger rail emergency" index="4" length="102.69728293674812" shape="40.6864,-22.1401 44.995149999999995,-25.85415 45.187650000000005,-26.02955 47.85965,-28.5212 47.9208,-28.57825 48.047399999999996,-28.686149999999998 56.1876,-35.6258 56.3565,-35.77865 59.138450000000006,-38.3691 59.299850000000006,-38.51385 67.3089,-45.3909 67.38204999999999,-45.4582 70.16605,-48.0543 78.41534999999999,-55.102900000000005 78.53620000000001,-55.2132 81.35015,-57.835300000000004 81.4801,-57.95105 89.63075,-64.9494 89.74775,-65.05615 92.48665,-67.61019999999999 100.45660000000001,-74.527 100.73814999999999,-74.77074999999999 103.44345,-77.1224 103.73135,-77.3733 111.5123,-84.2437 111.63635,-84.35315 111.6697,-84.38215 114.54650000000001,-86.88335000000001 114.6755,-86.99705 117.99205,-89.95779999999999" speed="36.11111111111111" width="3.265483218453288"/>
		<lane allow="moped bicycle pedestrian custom1 trailer evehicle rail_urban ship private vip custom2 authority delivery rail_electric taxi tram army hov coach motorcycle passenger rail emergency" index="5" length="102.69728293674812" shape="42.9219,-19.57875 47.254949999999994,-23.232300000000002 47.486850000000004,-23.43505 47.611850000000004,-23.551299999999998 50.2231,-25.9807 50.5755,-26.294150000000002 58.6458,-33.22225 58.888000000000005,-33.437 58.9912,-33.533100000000005 61.60155,-35.963449999999995 61.96695,-36.28445 69.60395,-42.71875 69.83545000000001,-42.921 69.96135,-43.0381 72.57265000000001,-45.46745 72.90835,-45.7702 80.80515,-52.7055 81.0603,-52.93535 81.13565,-53.00555 83.74510000000001,-55.43685 84.1049,-55.75425 91.87195,-62.338800000000006 92.10695000000001,-62.54515 92.22534999999999,-62.6554 94.8364,-65.08505 95.1768,-65.39085 102.6952,-71.94785 103.08359999999999,-72.28604999999999 105.68324999999999,-74.54585 106.0642,-74.8778 113.83664999999999,-81.66705 114.2239,-82.00444999999999 116.82355000000001,-84.26435000000001 117.1637,-84.56360000000001 117.1959,-84.59225 120.30475,-87.3628" speed="36.11111111111111" width="3.4791584298505343"/>
	</edge>
	<edge from="4" function="normal" id="17" length="84.21687036570808" numLanes="1" priority="1" speed="36.11111111111111" spreadType="center" to="2">
		<lane allow="moped bicycle pedestrian custom1 trailer evehicle rail_urban ship private vip custom2 authority delivery rail_electric taxi tram army hov coach motorcycle passenger rail emergency" index="0" length="84.21687036570808" shape="-33.4848,20.878700000000002 -33.3018,20.73605 -25.3753,14.657399999999999 -18.93855,9.520299999999999 -13.810400000000001,5.34635 -6.0888,-0.9394 -4.43465,-2.30605 4.11695,-9.40935 15.962,-19.19475 16.2832,-19.4602 22.14005,-24.44195 25.6,-27.446849999999998 31.533300000000004,-32.627300000000005" speed="36.11111111111111" width="3.640006708785026"/>
	</edge>
</edges>
