<!-- generated on 2020-12-18 15:54:05.744196 by ipykernel_launcher.py v1_2_0+5214-53edc58fcd
-->
<nodes>
	<node id="1" type="from" x="-22.99341" y="31.370060000000002"/>
	<node id="2" type="to" x="38.47041" y="-24.67908"/>
	<node id="3" type="to" x="114.61566666666666" y="-93.74628333333334"/>
	<node id="4" type="from" x="-33.4848" y="20.878700000000002"/>
</nodes>
