<!-- generated on Wed Feb 10 12:25:02 2021 by Eclipse SUMO netconvert Version 1.8.0
<configuration xmlns:xsi="http://www.w3.org/2001/XMLSchema-instance" xsi:noNamespaceSchemaLocation="http://sumo.dlr.de/xsd/netconvertConfiguration.xsd">

    <input>
        <node-files value="./converted_scenarios/SUMO/DEU_Lohmar-68_1_I-1-1/DEU_Lohmar-68_1_I-1-1.nod.xml"/>
        <edge-files value="./converted_scenarios/SUMO/DEU_Lohmar-68_1_I-1-1/DEU_Lohmar-68_1_I-1-1.edg.xml"/>
        <connection-files value="./converted_scenarios/SUMO/DEU_Lohmar-68_1_I-1-1/DEU_Lohmar-68_1_I-1-1.con.xml"/>
        <tllogic-files value="./converted_scenarios/SUMO/DEU_Lohmar-68_1_I-1-1/DEU_Lohmar-68_1_I-1-1.tll.xml"/>
        <type-files value="/home/zen/commonroad-interactive-benchmarks/install/commonroad-map-tool/crmapconverter/sumo_map/templates/DEU.typ.xml"/>
    </input>

    <output>
        <output-file value="./converted_scenarios/SUMO/DEU_Lohmar-68_1_I-1-1/DEU_Lohmar-68_1_I-1-1.net.xml"/>
    </output>

    <processing>
        <geometry.remove.keep-edges.explicit value="true"/>
        <geometry.avoid-overlap value="true"/>
        <offset.disable-normalization value="true"/>
    </processing>

    <junctions>
        <no-turnarounds value="true"/>
        <junctions.internal-link-detail value="20"/>
    </junctions>

    <report>
        <aggregate-warnings value="5"/>
    </report>

    <random_number>
        <seed value="1234"/>
    </random_number>

</configuration>
--><net xmlns:xsi="http://www.w3.org/2001/XMLSchema-instance" version="1.6" junctionCornerDetail="5" junctionLinkDetail="20" limitTurnSpeed="5.50" xsi:noNamespaceSchemaLocation="http://sumo.dlr.de/xsd/net_file.xsd">

    <location netOffset="0.00,0.00" convBoundary="-182.74,174.16,107.39,532.73" origBoundary="-182.74,174.16,107.39,532.73" projParameter="!"/>

    <type id="highway.bridleway" priority="1" speed="2.78" allow="pedestrian" oneway="1" width="2.00"/>
    <type id="highway.bus_guideway" priority="1" speed="27.78" allow="bus" oneway="1"/>
    <type id="highway.cycleway" priority="1" speed="8.33" allow="bicycle" oneway="0" width="1.00"/>
    <type id="highway.footway" priority="1" speed="2.78" allow="pedestrian" oneway="1" width="2.00"/>
    <type id="highway.ford" priority="1" speed="2.78" allow="army" oneway="0"/>
    <type id="highway.living_street" priority="2" speed="2.78" disallow="tram rail_urban rail rail_electric rail_fast ship" oneway="0"/>
    <type id="highway.motorway" priority="14" speed="39.44" allow="private emergency authority army vip passenger hov taxi bus coach delivery truck trailer motorcycle evehicle custom1 custom2" oneway="1"/>
    <type id="highway.motorway_link" priority="9" speed="22.22" allow="private emergency authority army vip passenger hov taxi bus coach delivery truck trailer motorcycle evehicle custom1 custom2" oneway="1"/>
    <type id="highway.path" priority="1" speed="2.78" allow="pedestrian bicycle" oneway="0" width="2.00"/>
    <type id="highway.pedestrian" priority="1" speed="2.78" allow="pedestrian" oneway="1" width="2.00"/>
    <type id="highway.primary" priority="12" speed="27.78" disallow="pedestrian tram rail_urban rail rail_electric rail_fast ship" oneway="0"/>
    <type id="highway.primary_link" priority="7" speed="22.22" disallow="pedestrian tram rail_urban rail rail_electric rail_fast ship" oneway="0"/>
    <type id="highway.raceway" priority="15" speed="83.33" allow="vip" oneway="0"/>
    <type id="highway.residential" priority="3" speed="13.89" disallow="pedestrian tram rail_urban rail rail_electric rail_fast ship" oneway="0"/>
    <type id="highway.secondary" priority="11" speed="27.78" disallow="pedestrian tram rail_urban rail rail_electric rail_fast ship" oneway="0"/>
    <type id="highway.secondary_link" priority="6" speed="22.22" disallow="pedestrian tram rail_urban rail rail_electric rail_fast ship" oneway="0"/>
    <type id="highway.service" priority="1" speed="5.56" allow="pedestrian delivery bicycle" oneway="0"/>
    <type id="highway.stairs" priority="1" speed="1.39" allow="pedestrian" oneway="1" width="2.00"/>
    <type id="highway.step" priority="1" speed="1.39" allow="pedestrian" oneway="1" width="2.00"/>
    <type id="highway.steps" priority="1" speed="1.39" allow="pedestrian" oneway="1" width="2.00"/>
    <type id="highway.tertiary" priority="10" speed="22.22" disallow="pedestrian tram rail_urban rail rail_electric rail_fast ship" oneway="0"/>
    <type id="highway.tertiary_link" priority="5" speed="22.22" disallow="pedestrian tram rail_urban rail rail_electric rail_fast ship" oneway="0"/>
    <type id="highway.track" priority="1" speed="5.56" allow="pedestrian motorcycle moped bicycle" oneway="0"/>
    <type id="highway.trunk" priority="13" speed="27.78" disallow="pedestrian bicycle tram rail_urban rail rail_electric rail_fast ship" oneway="0"/>
    <type id="highway.trunk_link" priority="8" speed="22.22" disallow="pedestrian bicycle tram rail_urban rail rail_electric rail_fast ship" oneway="0"/>
    <type id="highway.unclassified" priority="4" speed="13.89" disallow="pedestrian tram rail_urban rail rail_electric rail_fast ship" oneway="0"/>
    <type id="highway.unsurfaced" priority="1" speed="8.33" disallow="tram rail_urban rail rail_electric rail_fast ship" oneway="0"/>
    <type id="railway.highspeed" priority="21" speed="69.44" allow="rail_fast" oneway="1"/>
    <type id="railway.light_rail" priority="19" speed="27.78" allow="rail_urban" oneway="1"/>
    <type id="railway.preserved" priority="16" speed="27.78" allow="rail" oneway="1"/>
    <type id="railway.rail" priority="20" speed="44.44" allow="rail" oneway="1"/>
    <type id="railway.subway" priority="18" speed="27.78" allow="rail_urban" oneway="1"/>
    <type id="railway.tram" priority="17" speed="13.89" allow="tram" oneway="1"/>

    <edge id=":35_0" function="internal">
        <lane id=":35_0_0" index="0" disallow="pedestrian tram rail_urban rail rail_electric rail_fast ship" speed="36.11" length="17.48" width="3.50" shape="67.89,525.34 62.36,517.51 57.78,511.08"/>
    </edge>
    <edge id=":35_1" function="internal">
        <lane id=":35_1_0" index="0" disallow="pedestrian tram rail_urban rail rail_electric rail_fast ship" speed="9.53" length="17.56" width="3.50" shape="67.89,525.34 66.53,523.30 65.71,521.46 65.38,520.06 65.30,518.63 65.44,517.23 65.96,515.32 66.76,513.55 68.07,511.46 69.57,509.55"/>
    </edge>
    <edge id=":35_2" function="internal">
        <lane id=":35_2_0" index="0" disallow="pedestrian tram rail_urban rail rail_electric rail_fast ship" speed="8.08" length="12.69" width="3.50" shape="72.05,512.05 71.05,513.31 70.03,514.88 69.41,516.13 68.99,517.46 68.84,518.39 68.84,519.32 69.01,520.24 69.55,521.53 70.78,523.37"/>
    </edge>
    <edge id=":35_3" function="internal">
        <lane id=":35_3_0" index="0" disallow="pedestrian tram rail_urban rail rail_electric rail_fast ship" speed="8.46" length="17.42" width="3.50" shape="72.03,512.03 70.53,513.57 69.27,514.58 67.89,515.39 66.36,515.91 65.57,516.03 64.77,516.04 63.97,515.93 62.45,515.42 61.08,514.58 59.86,513.54 58.26,511.73 57.78,511.08"/>
    </edge>
    <edge id=":35_4" function="internal">
        <lane id=":35_4_0" index="0" disallow="pedestrian tram rail_urban rail rail_electric rail_fast ship" speed="6.84" length="11.20" width="3.50" shape="60.62,509.03 60.97,509.50 61.34,509.96 61.73,510.41 62.14,510.83 62.57,511.22 63.04,511.59 63.54,511.90 64.07,512.15 64.64,512.31 65.23,512.35 65.81,512.27 66.38,512.10 66.91,511.85 67.41,511.54 67.89,511.19 68.34,510.82 68.77,510.42 69.18,509.99 69.57,509.55"/>
    </edge>
    <edge id=":35_5" function="internal">
        <lane id=":35_5_0" index="0" disallow="pedestrian tram rail_urban rail rail_electric rail_fast ship" speed="36.11" length="17.57" width="3.50" shape="60.62,509.03 65.21,515.48 70.78,523.37"/>
    </edge>
    <edge id=":36_0" function="internal">
        <lane id=":36_0_0" index="0" disallow="pedestrian tram rail_urban rail rail_electric rail_fast ship" speed="36.11" length="16.10" width="3.50" shape="-120.65,362.92 -131.88,354.53 -133.53,353.26"/>
    </edge>
    <edge id=":36_1" function="internal">
        <lane id=":36_1_0" index="0" disallow="pedestrian tram rail_urban rail rail_electric rail_fast ship" speed="8.30" length="16.97" width="3.50" shape="-120.65,362.92 -121.75,362.04 -123.20,360.53 -124.05,359.25 -124.66,357.78 -124.92,356.17 -124.81,354.59 -124.38,353.10 -123.74,351.76 -122.58,350.05 -121.24,348.54"/>
    </edge>
    <edge id=":36_2" function="internal">
        <lane id=":36_2_0" index="0" disallow="pedestrian tram rail_urban rail rail_electric rail_fast ship" speed="6.75" length="10.81" width="3.50" shape="-118.75,350.99 -119.68,352.05 -120.48,353.21 -120.90,354.05 -121.18,354.95 -121.27,355.88 -121.15,356.81 -120.81,357.69 -120.30,358.48 -119.33,359.50 -118.59,360.09"/>
    </edge>
    <edge id=":36_3" function="internal">
        <lane id=":36_3_0" index="0" disallow="pedestrian tram rail_urban rail rail_electric rail_fast ship" speed="9.06" length="16.68" width="3.50" shape="-118.75,350.99 -120.81,352.85 -122.53,354.04 -124.40,354.95 -125.73,355.35 -127.11,355.54 -128.50,355.48 -129.86,355.20 -131.16,354.72 -132.97,353.67 -133.53,353.26"/>
    </edge>
    <edge id=":36_4" function="internal">
        <lane id=":36_4_0" index="0" disallow="pedestrian tram rail_urban rail rail_electric rail_fast ship" speed="7.64" length="11.58" width="3.50" shape="-131.40,350.48 -130.91,350.84 -130.39,351.16 -129.85,351.45 -129.29,351.68 -128.70,351.85 -128.10,351.95 -127.49,351.97 -126.89,351.93 -126.29,351.82 -125.70,351.65 -125.14,351.42 -124.59,351.16 -124.06,350.85 -123.55,350.52 -123.06,350.16 -122.58,349.78 -122.12,349.38 -121.67,348.96 -121.24,348.54"/>
    </edge>
    <edge id=":36_5" function="internal">
        <lane id=":36_5_0" index="0" disallow="pedestrian tram rail_urban rail rail_electric rail_fast ship" speed="36.11" length="16.01" width="3.50" shape="-131.40,350.48 -129.76,351.75 -118.59,360.09"/>
    </edge>
    <edge id=":37_0" function="internal">
        <lane id=":37_0_0" index="0" disallow="pedestrian tram rail_urban rail rail_electric rail_fast ship" speed="7.07" length="10.63" width="3.50" shape="-105.88,253.76 -106.85,254.09 -108.24,254.71 -109.46,255.50 -110.08,256.08 -110.59,256.76 -110.96,257.48 -111.16,258.29 -111.24,259.16 -111.18,260.06 -110.87,261.54"/>
    </edge>
    <edge id=":37_1" function="internal">
        <lane id=":37_1_0" index="0" disallow="pedestrian tram rail_urban rail rail_electric rail_fast ship" speed="11.58" length="23.61" width="3.50" shape="-105.88,253.76 -106.97,254.08 -110.75,254.99 -114.10,255.52 -116.97,255.69 -119.33,255.57 -121.68,255.14 -123.46,254.55 -125.14,253.68 -126.67,252.52 -127.95,251.14"/>
    </edge>
    <edge id=":37_2" function="internal">
        <lane id=":37_2_0" index="0" disallow="pedestrian tram rail_urban rail rail_electric rail_fast ship" speed="9.23" length="19.22" width="3.50" shape="-105.88,253.77 -107.25,254.09 -109.32,254.24 -110.81,254.07 -112.25,253.62 -113.57,252.94 -114.74,252.05 -116.15,250.54 -117.26,248.86 -118.39,246.55 -119.41,243.60"/>
    </edge>
    <edge id=":37_3" function="internal">
        <lane id=":37_3_0" index="0" disallow="pedestrian tram rail_urban rail rail_electric rail_fast ship" speed="7.86" length="13.63" width="3.50" shape="-116.05,242.62 -115.26,244.93 -114.44,246.70 -113.68,247.94 -112.73,249.06 -111.99,249.69 -111.16,250.19 -110.25,250.54 -109.29,250.70 -107.83,250.63 -106.89,250.41"/>
    </edge>
    <edge id=":37_4" function="internal">
        <lane id=":37_4_0" index="0" disallow="pedestrian tram rail_urban rail rail_electric rail_fast ship" speed="36.11" length="19.62" width="3.50" shape="-116.05,242.62 -113.46,252.07 -110.87,261.54"/>
    </edge>
    <edge id=":37_5" function="internal">
        <lane id=":37_5_0" index="0" disallow="pedestrian tram rail_urban rail rail_electric rail_fast ship" speed="9.15" length="36.87" width="3.50" shape="-116.05,242.62 -114.85,247.00 -113.81,251.45 -113.29,254.49 -113.13,256.12 -113.12,257.84 -113.72,259.94 -115.71,261.40 -117.93,261.35 -119.68,260.42 -121.01,259.29 -122.17,258.13 -125.18,254.68 -127.95,251.14"/>
    </edge>
    <edge id=":37_6" function="internal">
        <lane id=":37_6_0" index="0" disallow="pedestrian tram rail_urban rail rail_electric rail_fast ship" speed="7.20" length="21.94" width="3.50" shape="-125.06,249.17 -124.48,249.95 -123.72,250.90 -122.94,251.81 -122.12,252.71 -121.29,253.59 -120.43,254.42 -119.42,255.09 -118.72,255.67 -118.03,255.29 -117.54,254.22 -117.43,253.03 -117.53,251.83 -117.70,250.64 -117.93,249.45 -118.18,248.27 -118.46,247.10 -118.76,245.93 -119.07,244.76 -119.41,243.60"/>
    </edge>
    <edge id=":37_7" function="internal">
        <lane id=":37_7_0" index="0" disallow="pedestrian tram rail_urban rail rail_electric rail_fast ship" speed="10.48" length="19.19" width="3.50" shape="-125.03,249.16 -124.20,250.04 -123.02,250.89 -121.69,251.50 -120.29,251.90 -118.37,252.16 -116.42,252.19 -114.00,252.00 -111.12,251.50 -107.82,250.68 -106.89,250.41"/>
    </edge>
    <edge id=":37_8" function="internal">
        <lane id=":37_8_0" index="0" disallow="pedestrian tram rail_urban rail rail_electric rail_fast ship" speed="36.11" length="19.20" width="3.50" shape="-125.04,249.16 -124.13,250.20 -122.49,251.60 -119.78,253.36 -115.60,255.84 -113.86,257.12 -112.70,258.25 -111.74,259.55 -111.04,261.01 -110.87,261.54"/>
    </edge>
    <edge id=":37_9" function="internal">
        <lane id=":37_9_0" index="0" disallow="pedestrian tram rail_urban rail rail_electric rail_fast ship" speed="10.32" length="21.94" width="3.50" shape="-129.08,260.23 -124.69,258.34 -122.78,257.10 -121.51,255.97 -120.42,254.65 -119.57,253.17 -119.00,251.57 -118.70,249.89 -118.67,247.62 -118.98,245.36 -119.41,243.60"/>
    </edge>
    <edge id=":37_10" function="internal">
        <lane id=":37_10_0" index="0" disallow="pedestrian tram rail_urban rail rail_electric rail_fast ship" speed="36.11" length="24.29" width="3.50" shape="-129.08,260.23 -123.07,257.73 -113.06,252.78 -109.31,251.22 -106.89,250.41"/>
    </edge>
    <edge id=":37_11" function="internal">
        <lane id=":37_11_0" index="0" disallow="pedestrian tram rail_urban rail rail_electric rail_fast ship" speed="9.14" length="20.61" width="3.50" shape="-129.08,260.23 -123.50,258.26 -120.73,257.59 -118.48,257.28 -116.77,257.25 -115.09,257.49 -114.00,257.83 -113.01,258.38 -112.16,259.13 -111.49,260.05 -110.87,261.54"/>
    </edge>
    <edge id=":37_12" function="internal">
        <lane id=":37_12_0" index="0" disallow="pedestrian tram rail_urban rail rail_electric rail_fast ship" speed="36.11" length="18.14" width="3.50" shape="-114.24,262.49 -114.57,261.60 -115.04,260.77 -115.64,260.02 -116.32,259.36 -117.07,258.76 -117.85,258.22 -118.66,257.71 -119.49,257.23 -120.32,256.77 -121.16,256.31 -122.00,255.85 -122.83,255.37 -123.64,254.87 -124.44,254.35 -125.22,253.79 -125.97,253.20 -126.68,252.56 -127.34,251.87 -127.95,251.14"/>
    </edge>
    <edge id=":37_13" function="internal">
        <lane id=":37_13_0" index="0" disallow="pedestrian tram rail_urban rail rail_electric rail_fast ship" speed="36.11" length="19.58" width="3.50" shape="-114.24,262.49 -116.83,253.01 -119.41,243.60"/>
    </edge>
    <edge id=":37_14" function="internal">
        <lane id=":37_14_0" index="0" disallow="pedestrian tram rail_urban rail rail_electric rail_fast ship" speed="8.58" length="16.14" width="3.50" shape="-114.24,262.49 -114.67,260.42 -114.77,259.02 -114.67,257.62 -114.33,256.25 -113.73,254.99 -112.90,253.85 -111.89,252.89 -110.13,251.73 -108.21,250.86 -106.89,250.41"/>
    </edge>

    <edge id="151" from="20" to="37" priority="3" type="highway.residential" spreadType="center" length="70.23" shape="-162.22,189.64 -115.66,251.66">
        <lane id="151_0" index="0" disallow="pedestrian tram rail_urban rail rail_electric rail_fast ship" speed="36.11" length="70.23" width="3.49" customShape="1" shape="-162.22,189.64 -155.95,200.70 -152.00,207.06 -139.48,225.54 -134.49,233.32 -131.02,239.61 -128.33,244.36 -125.07,249.18"/>
    </edge>
    <edge id="152" from="37" to="13" priority="3" type="highway.residential" spreadType="center" length="70.00" shape="-118.46,253.76 -165.01,191.81">
        <lane id="152_0" index="0" disallow="pedestrian tram rail_urban rail rail_electric rail_fast ship" speed="36.11" length="70.00" width="3.50" customShape="1" shape="-127.95,251.14 -131.30,246.20 -134.09,241.28 -137.49,235.12 -142.39,227.47 -154.94,208.97 -158.96,202.48 -165.01,191.81"/>
    </edge>
    <edge id="154" from="30" to="37" priority="3" type="highway.residential" spreadType="center" length="68.06">
        <lane id="154_0" index="0" disallow="pedestrian tram rail_urban rail rail_electric rail_fast ship" speed="36.11" length="68.06" width="3.50" customShape="1" shape="-182.74,301.39 -171.55,290.53 -163.75,283.40 -156.83,277.55 -150.45,272.63 -144.26,268.31 -138.27,264.55 -134.25,262.45 -129.08,260.23"/>
    </edge>
    <edge id="159" from="35" to="27" priority="3" type="highway.residential" spreadType="center" length="41.21" shape="66.05,512.81 107.39,512.09">
        <lane id="159_0" index="0" disallow="pedestrian tram rail_urban rail rail_electric rail_fast ship" speed="36.11" length="41.21" width="3.50" customShape="1" shape="69.57,509.55 71.11,508.02 72.87,506.75 74.74,505.65 76.70,504.72 78.76,504.04 80.88,503.63 83.05,503.50 85.21,503.64 87.35,503.98 89.47,504.46 91.56,505.04 93.62,505.70 95.65,506.46 97.64,507.32 99.60,508.25 101.54,509.23 103.48,510.21 105.42,511.18 107.39,512.09"/>
    </edge>
    <edge id="160" from="33" to="35" priority="3" type="highway.residential" spreadType="center" length="36.92" shape="105.89,515.25 66.12,516.31">
        <lane id="160_0" index="0" disallow="pedestrian tram rail_urban rail rail_electric rail_fast ship" speed="36.11" length="36.92" width="3.50" customShape="1" shape="105.89,515.25 104.15,514.45 102.42,513.61 100.71,512.73 99.00,511.86 97.27,511.01 95.52,510.20 93.75,509.47 91.94,508.82 90.10,508.26 88.24,507.77 86.37,507.36 84.47,507.08 82.55,507.01 80.64,507.20 78.78,507.68 77.00,508.41 75.32,509.35 73.72,510.41 72.01,512.00"/>
    </edge>
    <edge id="177" from="37" to="11" priority="3" type="highway.residential" spreadType="center" length="70.00" shape="-118.80,253.02 -132.78,175.14">
        <lane id="177_0" index="0" disallow="pedestrian tram rail_urban rail rail_electric rail_fast ship" speed="36.11" length="70.00" width="3.50" customShape="1" shape="-119.41,243.60 -123.20,230.63 -126.55,218.53 -128.76,209.22 -130.39,200.80 -131.41,193.71 -132.18,185.61 -132.78,175.14"/>
    </edge>
    <edge id="178" from="34" to="37" priority="3" type="highway.residential" spreadType="center" length="70.00" shape="-129.33,174.16 -115.36,252.41">
        <lane id="178_0" index="0" disallow="pedestrian tram rail_urban rail rail_electric rail_fast ship" speed="36.11" length="70.00" width="3.50" customShape="1" shape="-129.33,174.16 -128.69,185.34 -127.93,193.29 -126.94,200.21 -125.34,208.48 -123.16,217.66 -119.84,229.67 -116.05,242.63"/>
    </edge>
    <edge id="210" from="36" to="37" priority="3" type="highway.residential" spreadType="center" length="94.66" shape="-125.78,354.26 -118.83,252.53">
        <lane id="210_0" index="0" disallow="pedestrian tram rail_urban rail rail_electric rail_fast ship" speed="36.11" length="94.66" width="3.50" customShape="1" shape="-121.24,348.54 -120.52,347.81 -113.08,340.87 -109.59,337.38 -107.07,334.42 -105.16,331.66 -103.76,329.10 -102.89,326.91 -102.45,325.12 -102.24,323.29 -102.28,320.98 -102.60,318.66 -103.26,315.88 -105.28,309.74 -106.64,305.26 -107.27,302.13 -107.54,299.37 -107.53,291.55 -107.80,288.65 -108.83,282.79 -110.42,276.02 -114.24,262.49"/>
    </edge>
    <edge id="211" from="37" to="36" priority="3" type="highway.residential" spreadType="center" length="98.34" shape="-115.34,252.77 -122.29,354.50">
        <lane id="211_0" index="0" disallow="pedestrian tram rail_urban rail rail_electric rail_fast ship" speed="36.11" length="98.34" width="3.50" customShape="1" shape="-110.87,261.54 -107.03,275.14 -105.40,282.09 -104.34,288.17 -104.03,291.42 -104.05,299.19 -103.82,301.60 -103.25,304.40 -101.96,308.65 -99.89,314.93 -99.15,318.04 -98.80,320.73 -98.75,323.49 -99.01,325.77 -99.57,328.00 -100.60,330.61 -102.19,333.51 -104.31,336.56 -107.02,339.77 -110.68,343.41 -118.06,350.30 -118.75,350.99"/>
    </edge>
    <edge id="357" from="35" to="36" priority="3" type="highway.residential" spreadType="center" length="232.67" shape="65.02,515.90 -125.17,355.71">
        <lane id="357_0" index="0" disallow="pedestrian tram rail_urban rail rail_electric rail_fast ship" speed="36.11" length="232.67" width="3.50" customShape="1" shape="57.78,511.08 56.30,509.03 51.77,503.02 47.56,498.06 42.43,492.60 28.02,478.47 18.85,469.84 10.53,462.52 0.07,453.86 -18.97,438.90 -42.42,420.82 -88.61,386.23 -120.67,362.90"/>
    </edge>
    <edge id="358" from="36" to="35" priority="3" type="highway.residential" spreadType="center" length="233.76" shape="-122.91,353.03 67.28,513.22">
        <lane id="358_0" index="0" disallow="pedestrian tram rail_urban rail rail_electric rail_fast ship" speed="36.11" length="233.76" width="3.50" customShape="1" shape="-118.59,360.09 -86.53,383.41 -40.30,418.03 -16.82,436.14 2.26,451.14 12.80,459.86 21.21,467.25 30.45,475.95 44.93,490.15 50.18,495.73 54.51,500.84 59.13,506.97 60.62,509.04"/>
    </edge>
    <edge id="360" from="23" to="35" priority="3" type="highway.residential" spreadType="center" length="8.91" shape="72.87,532.73 64.51,515.16">
        <lane id="360_0" index="0" disallow="pedestrian tram rail_urban rail rail_electric rail_fast ship" speed="36.11" length="8.91" width="3.50" customShape="1" shape="72.87,532.73 72.34,531.91 67.89,525.34"/>
    </edge>
    <edge id="361" from="35" to="26" priority="3" type="highway.residential" spreadType="center" length="9.02" shape="67.65,513.66 75.82,530.85">
        <lane id="361_0" index="0" disallow="pedestrian tram rail_urban rail rail_electric rail_fast ship" speed="36.11" length="9.02" width="3.50" customShape="1" shape="70.78,523.37 75.27,530.00 75.82,530.85"/>
    </edge>
    <edge id="366" from="37" to="8" priority="3" type="highway.residential" spreadType="center" length="32.66" shape="-117.66,251.02 -76.56,238.67">
        <lane id="366_0" index="0" disallow="pedestrian tram rail_urban rail rail_electric rail_fast ship" speed="36.11" length="32.66" width="3.50" customShape="1" shape="-106.89,250.41 -93.95,246.53 -87.89,244.39 -82.92,242.28 -78.97,240.30 -76.56,238.67"/>
    </edge>
    <edge id="367" from="28" to="37" priority="3" type="highway.residential" spreadType="center" length="33.85" shape="-74.50,241.50 -116.64,254.37">
        <lane id="367_0" index="0" disallow="pedestrian tram rail_urban rail rail_electric rail_fast ship" speed="36.11" length="33.85" width="3.50" customShape="1" shape="-74.50,241.50 -77.22,243.32 -81.45,245.46 -86.64,247.65 -92.87,249.85 -105.89,253.77"/>
    </edge>
    <edge id="372" from="36" to="31" priority="3" type="highway.residential" spreadType="center" length="35.58" shape="-124.94,355.87 -161.67,331.48">
        <lane id="372_0" index="0" disallow="pedestrian tram rail_urban rail rail_electric rail_fast ship" speed="36.11" length="35.58" width="3.50" customShape="1" shape="-133.53,353.26 -147.60,342.37 -161.67,331.48"/>
    </edge>
    <edge id="373" from="32" to="36" priority="3" type="highway.residential" spreadType="center" length="35.58" shape="-159.52,328.71 -123.01,352.96">
        <lane id="373_0" index="0" disallow="pedestrian tram rail_urban rail rail_electric rail_fast ship" speed="36.11" length="35.58" width="3.50" customShape="1" shape="-159.52,328.71 -145.46,339.60 -131.39,350.49"/>
    </edge>

    <junction id="11" type="dead_end" x="-132.78" y="175.14" incLanes="177_0" intLanes="" shape="-134.53,175.24 -131.03,175.04" rightOfWay="edgePriority"/>
    <junction id="13" type="dead_end" x="-165.01" y="191.81" incLanes="152_0" intLanes="" shape="-166.54,192.67 -163.49,190.95" rightOfWay="edgePriority"/>
    <junction id="20" type="dead_end" x="-162.22" y="189.64" incLanes="" intLanes="" shape="-163.74,190.50 -160.71,188.77" rightOfWay="edgePriority"/>
    <junction id="23" type="dead_end" x="72.87" y="532.73" incLanes="" intLanes="" shape="74.34,531.79 71.39,533.68" rightOfWay="edgePriority"/>
    <junction id="26" type="dead_end" x="75.82" y="530.85" incLanes="361_0" intLanes="" shape="77.29,529.91 74.34,531.79" rightOfWay="edgePriority"/>
    <junction id="27" type="dead_end" x="107.39" y="512.09" incLanes="159_0" intLanes="" shape="108.12,510.50 106.65,513.67" rightOfWay="edgePriority"/>
    <junction id="28" type="dead_end" x="-74.50" y="241.50" incLanes="" intLanes="" shape="-75.48,240.05 -73.53,242.95" rightOfWay="edgePriority"/>
    <junction id="30" type="dead_end" x="-182.74" y="301.39" incLanes="" intLanes="" shape="-181.52,302.64 -183.95,300.14" rightOfWay="edgePriority"/>
    <junction id="31" type="dead_end" x="-161.67" y="331.48" incLanes="372_0" intLanes="" shape="-162.74,332.86 -160.59,330.09" rightOfWay="edgePriority"/>
    <junction id="32" type="dead_end" x="-159.52" y="328.71" incLanes="" intLanes="" shape="-160.59,330.09 -158.45,327.33" rightOfWay="edgePriority"/>
    <junction id="33" type="dead_end" x="105.89" y="515.25" incLanes="" intLanes="" shape="106.62,513.66 105.17,516.84" rightOfWay="edgePriority"/>
    <junction id="34" type="dead_end" x="-129.33" y="174.16" incLanes="" intLanes="" shape="-131.08,174.26 -127.59,174.06" rightOfWay="edgePriority"/>
    <junction id="35" type="priority" x="66.15" y="514.56" incLanes="360_0 160_0 358_0" intLanes=":35_0_0 :35_1_0 :35_2_0 :35_3_0 :35_4_0 :35_5_0" shape="66.44,526.32 72.23,522.39 70.83,519.14 70.78,517.59 71.16,516.09 71.98,514.64 73.24,513.25 68.34,508.31 66.06,509.84 64.99,510.00 63.96,509.75 62.98,509.09 62.04,508.02 56.36,512.10">
        <request index="0" response="000000" foes="001000" cont="0"/>
        <request index="1" response="110000" foes="111000" cont="0"/>
        <request index="2" response="100000" foes="100000" cont="0"/>
        <request index="3" response="100011" foes="100011" cont="0"/>
        <request index="4" response="000000" foes="000010" cont="0"/>
        <request index="5" response="000000" foes="001110" cont="0"/>
    </junction>
    <junction id="36" type="priority" x="-124.03" y="354.38" incLanes="357_0 211_0 373_0" intLanes=":36_0_0 :36_1_0 :36_2_0 :36_3_0 :36_4_0 :36_5_0" shape="-121.68,364.34 -117.56,358.68 -119.19,356.77 -119.39,355.73 -119.17,354.62 -118.54,353.45 -117.50,352.22 -122.49,347.31 -125.31,349.49 -126.64,349.99 -127.92,350.09 -129.14,349.80 -130.32,349.11 -134.60,354.64">
        <request index="0" response="000000" foes="001000" cont="0"/>
        <request index="1" response="110000" foes="111000" cont="0"/>
        <request index="2" response="100000" foes="100000" cont="0"/>
        <request index="3" response="100011" foes="100011" cont="0"/>
        <request index="4" response="000000" foes="000010" cont="0"/>
        <request index="5" response="000000" foes="001110" cont="0"/>
    </junction>
    <junction id="37" type="priority" x="-117.08" y="252.68" incLanes="367_0 178_0 151_0 154_0 210_0" intLanes=":37_0_0 :37_1_0 :37_2_0 :37_3_0 :37_4_0 :37_5_0 :37_6_0 :37_7_0 :37_8_0 :37_9_0 :37_10_0 :37_11_0 :37_12_0 :37_13_0 :37_14_0" shape="-105.37,255.44 -107.39,248.74 -110.23,248.62 -111.45,247.78 -112.55,246.42 -113.52,244.54 -114.37,242.13 -121.08,244.09 -123.62,248.20 -129.40,252.12 -127.91,255.08 -127.77,256.26 -128.02,257.24 -128.67,258.02 -129.71,258.60 -128.45,261.86 -125.11,260.60 -122.24,259.90 -119.89,259.79 -118.05,260.27 -116.73,261.32 -115.92,262.96 -109.19,261.06 -109.29,258.61 -108.82,257.60 -108.01,256.73 -106.86,256.01">
        <request index="0" response="000000100010000" foes="000100100010000" cont="0"/>
        <request index="1" response="111011100110000" foes="111111100110000" cont="0"/>
        <request index="2" response="110011011110000" foes="110011011110000" cont="0"/>
        <request index="3" response="000000000000000" foes="100010010000000" cont="0"/>
        <request index="4" response="000000000000000" foes="100110110000111" cont="0"/>
        <request index="5" response="111000000000000" foes="111101110000110" cont="0"/>
        <request index="6" response="010000000000000" foes="010001000000100" cont="0"/>
        <request index="7" response="110010000111000" foes="110011000111100" cont="0"/>
        <request index="8" response="110000000110000" foes="110111000110011" cont="0"/>
        <request index="9" response="011000111100000" foes="011000111100110" cont="0"/>
        <request index="10" response="111000100011000" foes="111000110011110" cont="0"/>
        <request index="11" response="111000100110011" foes="111000100110011" cont="0"/>
        <request index="12" response="000000000000000" foes="000111000100010" cont="0"/>
        <request index="13" response="000000000000000" foes="000111111100110" cont="0"/>
        <request index="14" response="000000000011000" foes="000110110011110" cont="0"/>
    </junction>
    <junction id="8" type="dead_end" x="-76.56" y="238.67" incLanes="366_0" intLanes="" shape="-77.54,237.22 -75.58,240.12" rightOfWay="edgePriority"/>

    <connection from="151" to="177" fromLane="0" toLane="0" contPos="-4.00" shape="-125.20,248.98 -124.48,249.95 -123.72,250.90 -122.94,251.81 -122.12,252.71 -121.29,253.59 -120.43,254.42 -119.42,255.09 -118.72,255.67 -118.03,255.29 -117.54,254.22 -117.43,253.03 -117.53,251.83 -117.70,250.64 -117.93,249.45 -118.18,248.27 -118.46,247.10 -118.76,245.93 -119.07,244.76 -119.41,243.60" via=":37_6_0" dir="r" state="m"/>