<routes>
	<vehicle depart="0.1" departLane="0" departPos="182.7995429735725" departSpeed="8.7178" id="35" type="passenger">
		<route edges="27 30 26"/>
	</vehicle>
	<vehicle depart="0.1" departLane="0" departPos="84.67864885857252" departSpeed="7.2887" id="36" type="passenger">
		<route edges="27 34 23"/>
	</vehicle>
	<vehicle depart="0.1" departLane="0" departPos="109.21366832846871" departSpeed="6.8813" id="37" type="passenger">
		<route edges="25 33 28"/>
	</vehicle>
	<vehicle depart="0.1" departLane="0" departPos="147.5151787435686" departSpeed="7.7727" id="38" type="passenger">
		<route edges="27 30 26"/>
	</vehicle>
	<vehicle depart="0.1" departLane="0" departPos="132.10559109529677" departSpeed="7.7086" id="39" type="passenger">
		<route edges="27 30 26"/>
	</vehicle>
	<vehicle depart="0.1" departLane="0" departPos="116.69515391255806" departSpeed="7.7218" id="40" type="passenger">
		<route edges="27 30 26"/>
	</vehicle>
	<vehicle depart="0.1" departLane="0" departPos="0" departSpeed="8.5446" id="41" type="passenger">
		<route edges="28"/>
	</vehicle>
	<vehicle depart="0.1" departLane="0" departPos="101.30401384004385" departSpeed="7.7532" id="42" type="passenger">
		<route edges="27 30 26"/>
	</vehicle>
	<vehicle depart="0.1" departLane="0" departPos="69.32607002334683" departSpeed="7.1285" id="310" type="passenger">
		<route edges="27 34 23"/>
	</vehicle>
	<vehicle depart="0.1" departLane="0" departPos="54.79671077418244" departSpeed="6.9798" id="312" type="passenger">
		<route edges="27 34 23"/>
	</vehicle>
	<vehicle depart="0.1" departLane="0" departPos="0" departSpeed="6.7843" id="314" type="passenger">
		<route edges="27 34 23"/>
	</vehicle>
	<vehicle depart="0.1" departLane="0" departPos="0" departSpeed="6.4333" id="316" type="passenger">
		<route edges="27 34 23"/>
	</vehicle>
	<vehicle depart="0.1" departLane="0" departPos="0" departSpeed="5.4641" id="318" type="passenger">
		<route edges="27 34 23"/>
	</vehicle>
	<vehicle depart="0.1" departLane="0" departPos="0" departSpeed="3.8366" id="319" type="passenger">
		<route edges="25 31 23"/>
	</vehicle>
	<vehicle depart="0.1" departLane="0" departPos="0" departSpeed="3.5442" id="320" type="passenger">
		<route edges="27 34 23"/>
	</vehicle>
</routes>
