<!-- generated on 2020-12-18 16:05:10.409541 by ipykernel_launcher.py v1_2_0+5214-53edc58fcd
-->
<edges>
	<edge from="1" function="normal" id="23" length="8.811083348128705" numLanes="1" priority="1" speed="36.11111111111111" spreadType="center" to="2">
		<lane allow="moped bicycle pedestrian custom1 trailer evehicle rail_urban ship private truck vip custom2 authority delivery rail_electric taxi tram army hov coach motorcycle passenger bus rail emergency" index="0" length="8.811083348128705" shape="-17.72705,-46.108850000000004 -18.988599999999998,-50.3202 -20.25485,-54.549549999999996" speed="36.11111111111111" width="2.49995568360721"/>
	</edge>
	<edge from="3" function="normal" id="24" length="8.828535246618772" numLanes="1" priority="1" speed="36.11111111111111" spreadType="center" to="4">
		<lane allow="moped bicycle pedestrian custom1 trailer evehicle rail_urban ship private truck vip custom2 authority delivery rail_electric taxi tram army hov coach motorcycle passenger bus rail emergency" index="0" length="8.828535246618772" shape="-17.859900000000003,-55.2666 -16.59365,-51.03725 -15.3277,-46.809" speed="36.11111111111111" width="2.4989510199281617"/>
	</edge>
	<edge from="5" function="normal" id="25" length="109.21366832846871" numLanes="1" priority="1" speed="36.11111111111111" spreadType="center" to="6">
		<lane allow="moped bicycle pedestrian custom1 trailer evehicle rail_urban ship private vip custom2 authority delivery rail_electric taxi tram army hov coach motorcycle passenger rail emergency" index="0" length="109.21366832846871" shape="21.45815,71.31075 15.97515,52.9846 12.2013,40.97945 9.3488,32.9119 4.34085,20.82025 1.66455,13.7603 -3.2536000000000005,-0.5177499999999999 -13.3701,-32.1434" speed="36.11111111111111" width="2.4999675777897576"/>
	</edge>
	<edge from="7" function="normal" id="26" length="109.26993650685446" numLanes="1" priority="1" speed="36.11111111111111" spreadType="center" to="8">
		<lane allow="moped bicycle pedestrian custom1 trailer evehicle rail_urban ship private vip custom2 authority delivery rail_electric taxi tram army hov coach motorcycle passenger rail emergency" index="0" length="109.26993650685446" shape="-10.9959,-32.9249 -0.8760000000000001,-1.2903 4.032500000000001,12.95765 6.69885,19.9824 11.7106,32.08955 14.579899999999999,40.210300000000004 18.363599999999998,52.24605 23.849800000000002,70.58279999999999" speed="36.11111111111111" width="2.499172543063002"/>
	</edge>
	<edge from="9" function="normal" id="27" length="182.7995429735725" numLanes="1" priority="1" speed="36.11111111111111" spreadType="center" to="10">
		<lane allow="moped bicycle pedestrian custom1 trailer evehicle rail_urban ship private vip custom2 authority delivery rail_electric taxi tram army hov coach motorcycle passenger rail emergency" index="0" length="182.7995429735725" shape="-201.9177,-12.68885 -195.40025,-13.0871 -158.78050000000002,-14.93355 -142.22935,-15.825099999999999 -124.19149999999999,-17.083849999999998 -108.688,-18.52445 -100.2111,-19.544600000000003 -87.33525,-21.72295 -71.9488,-24.10775 -64.5418,-25.48195 -54.7607,-27.7691 -44.58865,-30.55755 -34.50935,-33.6644 -21.74355,-38.16685" speed="36.11111111111111" width="2.499419504605024"/>
	</edge>
	<edge from="11" function="normal" id="28" length="183.50796867563136" numLanes="1" priority="1" speed="36.11111111111111" spreadType="center" to="12">
		<lane allow="moped bicycle pedestrian custom1 trailer evehicle rail_urban ship private vip custom2 authority delivery rail_electric taxi tram army hov coach motorcycle passenger rail emergency" index="0" length="183.50796867563136" shape="-20.89665,-35.8159 -33.71725,-31.29345 -43.8584,-28.1665 -54.0914,-25.36 -63.94155,-23.05415 -71.40934999999999,-21.6627 -86.83525,-19.27235 -99.75625,-17.0849 -108.29585,-16.0521 -123.86019999999999,-14.602599999999999 -141.9571,-13.33695 -158.55235,-12.4418 -195.23845,-10.5923 -201.7619,-10.193750000000001" speed="36.11111111111111" width="2.4992788819977627"/>
	</edge>
	<edge from="4" function="normal" id="29" length="14.54416460539748" numLanes="1" priority="1" speed="36.11111111111111" spreadType="center" to="7">
		<lane allow="moped bicycle pedestrian custom1 trailer evehicle rail_urban ship private truck vip custom2 authority delivery rail_electric taxi tram army hov coach motorcycle passenger bus rail emergency" index="0" length="14.54416460539748" shape="-15.3277,-46.809 -13.161950000000001,-39.8672 -10.9959,-32.9249" speed="36.11111111111111" width="2.4989510199281617"/>
	</edge>
	<edge from="10" function="normal" id="30" length="13.814139088177877" numLanes="1" priority="1" speed="36.11111111111111" spreadType="center" to="7">
		<lane allow="moped bicycle pedestrian custom1 trailer evehicle rail_urban ship private vip custom2 authority delivery rail_electric taxi tram army hov coach motorcycle passenger rail emergency" index="0" length="13.814139088177877" shape="-21.74355,-38.16685 -20.2529,-38.62315 -18.743049999999997,-38.89135 -17.21115,-38.912 -15.7121,-38.60680000000001 -14.3382,-37.93655 -13.176400000000001,-36.9411 -12.25235,-35.71935 -11.54075,-34.36095 -10.9959,-32.9249" speed="36.11111111111111" width="2.499172543063002"/>
	</edge>
	<edge from="6" function="normal" id="31" length="14.629313390517435" numLanes="1" priority="1" speed="36.11111111111111" spreadType="center" to="1">
		<lane allow="moped bicycle pedestrian custom1 trailer evehicle rail_urban ship private truck vip custom2 authority delivery rail_electric taxi tram army hov coach motorcycle passenger bus rail emergency" index="0" length="14.629313390517435" shape="-13.3701,-32.1434 -15.549,-39.124449999999996 -17.72705,-46.108850000000004" speed="36.11111111111111" width="2.4999133124970556"/>
	</edge>
	<edge from="4" function="normal" id="32" length="13.947943912030446" numLanes="1" priority="1" speed="36.11111111111111" spreadType="center" to="11">
		<lane allow="moped bicycle pedestrian custom1 trailer evehicle rail_urban ship private vip custom2 authority delivery rail_electric taxi tram army hov coach motorcycle passenger rail emergency" index="0" length="13.947943912030446" shape="-15.3277,-46.809 -14.96235,-45.3033 -14.7795,-43.76675 -14.8386,-42.221599999999995 -15.19955,-40.71885 -15.8961,-39.33975 -16.89225,-38.15805 -18.1004,-37.1929 -19.4449,-36.4269 -20.89665,-35.8159" speed="36.11111111111111" width="2.4989510199281617"/>
	</edge>
	<edge from="6" function="normal" id="33" length="9.760965311909917" numLanes="1" priority="1" speed="36.11111111111111" spreadType="center" to="11">
		<lane allow="moped bicycle pedestrian custom1 trailer evehicle rail_urban ship private vip custom2 authority delivery rail_electric taxi tram army hov coach motorcycle passenger rail emergency" index="0" length="9.760965311909917" shape="-13.3701,-32.1434 -13.78765,-33.25064999999999 -14.30485,-34.247749999999996 -14.94425,-35.1011 -15.7056,-35.761250000000004 -16.590850000000003,-36.1922 -17.58195,-36.38765 -18.64925,-36.3669 -19.75855,-36.1659 -20.89665,-35.8159" speed="36.11111111111111" width="2.4992788819977627"/>
	</edge>
	<edge from="10" function="normal" id="34" length="10.135607039613165" numLanes="1" priority="1" speed="36.11111111111111" spreadType="center" to="1">
		<lane allow="moped bicycle pedestrian custom1 trailer evehicle rail_urban ship private vip custom2 authority delivery rail_electric taxi tram army hov coach motorcycle passenger rail emergency" index="0" length="10.135607039613165" shape="-21.74355,-38.16685 -20.62125,-38.637950000000004 -19.612099999999998,-39.208650000000006 -18.7407,-39.89985 -18.0512,-40.7097 -17.5816,-41.638450000000006 -17.33775,-42.67355 -17.2997,-43.78325 -17.43965,-44.934349999999995 -17.72705,-46.108850000000004" speed="36.11111111111111" width="2.499419504605024"/>
	</edge>
</edges>
