<routes>
	<vehicle depart="0.1" departLane="0" departPos="9.195896530736576" departSpeed="0.0" id="313" type="bicycle">
		<route edges="52550 54894"/>
	</vehicle>
	<vehicle depart="0.1" departLane="0" departPos="18.008463977776415" departSpeed="11.363644" id="336" type="bus">
		<route edges="52154 52162 54405"/>
	</vehicle>
	<vehicle depart="0.1" departLane="0" departPos="19.420303669856512" departSpeed="0.40217226" id="38" type="passenger">
		<route edges=":28_3 54405"/>
	</vehicle>
	<vehicle depart="0.1" departLane="1" departPos="7.5088489423191485" departSpeed="2.3844844" id="311" type="passenger">
		<route edges="52550 54405"/>
	</vehicle>
	<vehicle depart="0.1" departLane="1" departPos="8.695896553536436" departSpeed="0.12517649" id="317" type="passenger">
		<route edges="52154 52162"/>
	</vehicle>
	<vehicle depart="0.1" departLane="0" departPos="9.347629323183346" departSpeed="0.0" id="319" type="passenger">
		<route edges="52550 54894"/>
	</vehicle>
	<vehicle depart="0.1" departLane="1" departPos="14.57058981325202" departSpeed="0.67918978" id="39" type="motorcycle">
		<route edges="52154 52162 54245"/>
	</vehicle>
	<vehicle depart="0.1" departLane="0" departPos="1.25" departSpeed="0.11372059" id="327" type="motorcycle">
		<route edges="52550 54894"/>
	</vehicle>
</routes>
