<routes>
	<vehicle depart="0.1" departLane="0" departPos="24.722316167613887" departSpeed="0.008932665" id="338" type="bus">
		<route edges="39145 39242"/>
	</vehicle>
	<vehicle depart="0.1" departLane="0" departPos="2.5" departSpeed="5.2245483" id="30" type="passenger">
		<route edges=":63_0 39142 39139"/>
	</vehicle>
	<vehicle depart="0.1" departLane="0" departPos="69.90089383089743" departSpeed="0.0" id="316" type="passenger">
		<route edges="39099 39143"/>
	</vehicle>
	<vehicle depart="0.1" departLane="0" departPos="62.399974803811105" departSpeed="0.0" id="317" type="passenger">
		<route edges="39099 39143"/>
	</vehicle>
	<vehicle depart="0.1" departLane="0" departPos="60.46555435077873" departSpeed="3.3690742" id="319" type="passenger">
		<route edges="39241 39142 39139"/>
	</vehicle>
	<vehicle depart="0.1" departLane="0" departPos="54.899050716643046" departSpeed="0.0" id="320" type="passenger">
		<route edges="39099 39143"/>
	</vehicle>
	<vehicle depart="0.1" departLane="0" departPos="47.39818311165035" departSpeed="2.9594152e-05" id="322" type="passenger">
		<route edges="39099 39143"/>
	</vehicle>
	<vehicle depart="0.1" departLane="0" departPos="31.070057926843045" departSpeed="1.8124419" id="325" type="passenger">
		<route edges="39241 39142"/>
	</vehicle>
	<vehicle depart="0.1" departLane="0" departPos="42.90778144019172" departSpeed="1.0055196" id="327" type="passenger">
		<route edges="39241 39142"/>
	</vehicle>
	<vehicle depart="0.1" departLane="0" departPos="3.609043951578538" departSpeed="0.54613982" id="331" type="motorcycle">
		<route edges=":63_3 39142"/>
	</vehicle>
</routes>
