<routes>
	<vehicle depart="0.1" departLane="0" departPos="9.066804432459241" departSpeed="8.3163917" id="329" type="bicycle">
		<route edges="3961 2224"/>
	</vehicle>
	<vehicle depart="0.1" departLane="0" departPos="32.72075982162784" departSpeed="0.0" id="36" type="passenger">
		<route edges="1781 1753"/>
	</vehicle>
	<vehicle depart="0.1" departLane="1" departPos="34.11441275645109" departSpeed="1.8543046" id="311" type="passenger">
		<route edges="1781 2478"/>
	</vehicle>
	<vehicle depart="0.1" departLane="0" departPos="33.76733522821449" departSpeed="8.9055601" id="317" type="passenger">
		<route edges=":39_8 2478 4331 2181"/>
	</vehicle>
	<vehicle depart="0.1" departLane="0" departPos="58.559451614133806" departSpeed="9.9718402" id="355" type="passenger">
		<route edges=":39_0 2478 4331 2181"/>
	</vehicle>
	<vehicle depart="0.1" departLane="0" departPos="2.5" departSpeed="14.605051" id="358" type="passenger">
		<route edges="3961 2224"/>
	</vehicle>
	<vehicle depart="0.1" departLane="0" departPos="27.463058239187397" departSpeed="8.2942376" id="362" type="passenger">
		<route edges=":39_0 2478 4331"/>
	</vehicle>
	<vehicle depart="0.1" departLane="0" departPos="25.4355109328649" departSpeed="14.791262" id="363" type="passenger">
		<route edges=":39_1 3961 2224"/>
	</vehicle>
	<vehicle depart="0.1" departLane="0" departPos="13.309124951052606" departSpeed="7.6087007" id="365" type="passenger">
		<route edges=":39_0 2478"/>
	</vehicle>
	<vehicle depart="0.1" departLane="0" departPos="24.323932342469792" departSpeed="6.7326615" id="368" type="passenger">
		<route edges="2049 2478"/>
	</vehicle>
</routes>
