<routes>
	<vehicle depart="0.1" departLane="0" departPos="36.82934496571095" departSpeed="0.0" id="315" type="bicycle">
		<route edges="296 460"/>
	</vehicle>
	<vehicle depart="0.1" departLane="0" departPos="29.52991728819313" departSpeed="1.1552679" id="322" type="bicycle">
		<route edges="79 76"/>
	</vehicle>
	<vehicle depart="0.1" departLane="0" departPos="66.85070353700253" departSpeed="11.691244" id="332" type="bus">
		<route edges="298 295"/>
	</vehicle>
	<vehicle depart="0.1" departLane="0" departPos="74.96789870734894" departSpeed="0.0" id="34" type="passenger">
		<route edges="299 76"/>
	</vehicle>
	<vehicle depart="0.1" departLane="0" departPos="67.8477798631848" departSpeed="0.0" id="35" type="passenger">
		<route edges="299 76"/>
	</vehicle>
	<vehicle depart="0.1" departLane="0" departPos="16.143529379705775" departSpeed="10.58939" id="36" type="passenger">
		<route edges="298 295"/>
	</vehicle>
	<vehicle depart="0.1" departLane="0" departPos="36.280979005635274" departSpeed="0.0" id="311" type="passenger">
		<route edges="459 295"/>
	</vehicle>
	<vehicle depart="0.1" departLane="0" departPos="53.02510723592805" departSpeed="3.4261394" id="312" type="passenger">
		<route edges="79 76"/>
	</vehicle>
	<vehicle depart="0.1" departLane="0" departPos="35.86928956135512" departSpeed="0.0" id="317" type="passenger">
		<route edges="296 460"/>
	</vehicle>
	<vehicle depart="0.1" departLane="0" departPos="29.295698455341316" departSpeed="0.0" id="318" type="passenger">
		<route edges="459 295"/>
	</vehicle>
	<vehicle depart="0.1" departLane="0" departPos="22.230551955025298" departSpeed="0.0" id="319" type="passenger">
		<route edges="459 295"/>
	</vehicle>
	<vehicle depart="0.1" departLane="0" departPos="36.43194002904205" departSpeed="1.8679256" id="320" type="passenger">
		<route edges="79 76"/>
	</vehicle>
	<vehicle depart="0.1" departLane="0" departPos="28.510333962667037" departSpeed="0.0" id="321" type="passenger">
		<route edges="296 460"/>
	</vehicle>
	<vehicle depart="0.1" departLane="0" departPos="21.069716153468427" departSpeed="0.0" id="323" type="passenger">
		<route edges="296 460"/>
	</vehicle>
	<vehicle depart="0.1" departLane="0" departPos="15.045306473155692" departSpeed="0.0" id="325" type="passenger">
		<route edges="459 295"/>
	</vehicle>
	<vehicle depart="0.1" departLane="0" departPos="25.096175908053134" departSpeed="1.9026459" id="327" type="passenger">
		<route edges="79 76"/>
	</vehicle>
	<vehicle depart="0.1" departLane="0" departPos="14.029072796436063" departSpeed="2.3276913e-05" id="328" type="passenger">
		<route edges="296 460"/>
	</vehicle>
	<vehicle depart="0.1" departLane="0" departPos="7.988791269324378" departSpeed="1.3473273e-05" id="330" type="passenger">
		<route edges="459 295"/>
	</vehicle>
	<vehicle depart="0.1" departLane="0" departPos="17.085717233133387" departSpeed="0.78284264" id="331" type="passenger">
		<route edges="79 76"/>
	</vehicle>
	<vehicle depart="0.1" departLane="0" departPos="7.328282868813019" departSpeed="0.00015724715" id="333" type="passenger">
		<route edges="296 460"/>
	</vehicle>
	<vehicle depart="0.1" departLane="0" departPos="42.193296474061604" departSpeed="11.149539" id="334" type="passenger">
		<route edges="298 295"/>
	</vehicle>
	<vehicle depart="0.1" departLane="0" departPos="9.855461958382389" departSpeed="0.26055002" id="335" type="passenger">
		<route edges="79 76"/>
	</vehicle>
	<vehicle depart="0.1" departLane="0" departPos="22.230090644788664" departSpeed="14.680337" id="336" type="passenger">
		<route edges="77 80"/>
	</vehicle>
	<vehicle depart="0.1" departLane="0" departPos="43.22086949596568" departSpeed="2.4509817" id="314" type="motorcycle">
		<route edges="79 76"/>
	</vehicle>
	<vehicle depart="0.1" departLane="0" departPos="3.737957157005248" departSpeed="5.4594914" id="326" type="motorcycle">
		<route edges="460"/>
	</vehicle>
	<vehicle depart="0.1" departLane="0" departPos="7.128938336854201" departSpeed="4.8336263" id="37" type="truck">
		<route edges=":22_0 76"/>
	</vehicle>
</routes>
