<!-- generated on Tue Feb  9 22:09:23 2021 by Eclipse SUMO netconvert Version 1.8.0
<configuration xmlns:xsi="http://www.w3.org/2001/XMLSchema-instance" xsi:noNamespaceSchemaLocation="http://sumo.dlr.de/xsd/netconvertConfiguration.xsd">

    <input>
        <node-files value="./converted_scenarios/scenario-factory/BEL_Aarschot-11_1_I-1-1/BEL_Aarschot-11_1_I-1-1.nod.xml"/>
        <edge-files value="./converted_scenarios/scenario-factory/BEL_Aarschot-11_1_I-1-1/BEL_Aarschot-11_1_I-1-1.edg.xml"/>
        <connection-files value="./converted_scenarios/scenario-factory/BEL_Aarschot-11_1_I-1-1/BEL_Aarschot-11_1_I-1-1.con.xml"/>
        <tllogic-files value="./converted_scenarios/scenario-factory/BEL_Aarschot-11_1_I-1-1/BEL_Aarschot-11_1_I-1-1.tll.xml"/>
        <type-files value="/home/zen/commonroad-interactive-benchmarks/install/commonroad-map-tool/crmapconverter/sumo_map/templates/DEU.typ.xml"/>
    </input>

    <output>
        <output-file value="./converted_scenarios/scenario-factory/BEL_Aarschot-11_1_I-1-1/BEL_Aarschot-11_1_I-1-1.net.xml"/>
    </output>

    <processing>
        <geometry.remove.keep-edges.explicit value="true"/>
        <geometry.avoid-overlap value="true"/>
        <offset.disable-normalization value="true"/>
    </processing>

    <junctions>
        <no-turnarounds value="true"/>
        <junctions.internal-link-detail value="20"/>
    </junctions>

    <report>
        <aggregate-warnings value="5"/>
    </report>

    <random_number>
        <seed value="1234"/>
    </random_number>

</configuration>
--><net xmlns:xsi="http://www.w3.org/2001/XMLSchema-instance" version="1.6" junctionCornerDetail="5" junctionLinkDetail="20" limitTurnSpeed="5.50" xsi:noNamespaceSchemaLocation="http://sumo.dlr.de/xsd/net_file.xsd">

    <location netOffset="0.00,0.00" convBoundary="871.02,-188.69,1004.96,19.70" origBoundary="871.02,-188.69,1004.96,19.70" projParameter="!"/>

    <type id="highway.bridleway" priority="1" speed="2.78" allow="pedestrian" oneway="1" width="2.00"/>
    <type id="highway.bus_guideway" priority="1" speed="27.78" allow="bus" oneway="1"/>
    <type id="highway.cycleway" priority="1" speed="8.33" allow="bicycle" oneway="0" width="1.00"/>
    <type id="highway.footway" priority="1" speed="2.78" allow="pedestrian" oneway="1" width="2.00"/>
    <type id="highway.ford" priority="1" speed="2.78" allow="army" oneway="0"/>
    <type id="highway.living_street" priority="2" speed="2.78" disallow="tram rail_urban rail rail_electric rail_fast ship" oneway="0"/>
    <type id="highway.motorway" priority="14" speed="39.44" allow="private emergency authority army vip passenger hov taxi bus coach delivery truck trailer motorcycle evehicle custom1 custom2" oneway="1"/>
    <type id="highway.motorway_link" priority="9" speed="22.22" allow="private emergency authority army vip passenger hov taxi bus coach delivery truck trailer motorcycle evehicle custom1 custom2" oneway="1"/>
    <type id="highway.path" priority="1" speed="2.78" allow="pedestrian bicycle" oneway="0" width="2.00"/>
    <type id="highway.pedestrian" priority="1" speed="2.78" allow="pedestrian" oneway="1" width="2.00"/>
    <type id="highway.primary" priority="12" speed="27.78" disallow="pedestrian tram rail_urban rail rail_electric rail_fast ship" oneway="0"/>
    <type id="highway.primary_link" priority="7" speed="22.22" disallow="pedestrian tram rail_urban rail rail_electric rail_fast ship" oneway="0"/>
    <type id="highway.raceway" priority="15" speed="83.33" allow="vip" oneway="0"/>
    <type id="highway.residential" priority="3" speed="13.89" disallow="pedestrian tram rail_urban rail rail_electric rail_fast ship" oneway="0"/>
    <type id="highway.secondary" priority="11" speed="27.78" disallow="pedestrian tram rail_urban rail rail_electric rail_fast ship" oneway="0"/>
    <type id="highway.secondary_link" priority="6" speed="22.22" disallow="pedestrian tram rail_urban rail rail_electric rail_fast ship" oneway="0"/>
    <type id="highway.service" priority="1" speed="5.56" allow="pedestrian delivery bicycle" oneway="0"/>
    <type id="highway.stairs" priority="1" speed="1.39" allow="pedestrian" oneway="1" width="2.00"/>
    <type id="highway.step" priority="1" speed="1.39" allow="pedestrian" oneway="1" width="2.00"/>
    <type id="highway.steps" priority="1" speed="1.39" allow="pedestrian" oneway="1" width="2.00"/>
    <type id="highway.tertiary" priority="10" speed="22.22" disallow="pedestrian tram rail_urban rail rail_electric rail_fast ship" oneway="0"/>
    <type id="highway.tertiary_link" priority="5" speed="22.22" disallow="pedestrian tram rail_urban rail rail_electric rail_fast ship" oneway="0"/>
    <type id="highway.track" priority="1" speed="5.56" allow="pedestrian motorcycle moped bicycle" oneway="0"/>
    <type id="highway.trunk" priority="13" speed="27.78" disallow="pedestrian bicycle tram rail_urban rail rail_electric rail_fast ship" oneway="0"/>
    <type id="highway.trunk_link" priority="8" speed="22.22" disallow="pedestrian bicycle tram rail_urban rail rail_electric rail_fast ship" oneway="0"/>
    <type id="highway.unclassified" priority="4" speed="13.89" disallow="pedestrian tram rail_urban rail rail_electric rail_fast ship" oneway="0"/>
    <type id="highway.unsurfaced" priority="1" speed="8.33" disallow="tram rail_urban rail rail_electric rail_fast ship" oneway="0"/>
    <type id="railway.highspeed" priority="21" speed="69.44" allow="rail_fast" oneway="1"/>
    <type id="railway.light_rail" priority="19" speed="27.78" allow="rail_urban" oneway="1"/>
    <type id="railway.preserved" priority="16" speed="27.78" allow="rail" oneway="1"/>
    <type id="railway.rail" priority="20" speed="44.44" allow="rail" oneway="1"/>
    <type id="railway.subway" priority="18" speed="27.78" allow="rail_urban" oneway="1"/>
    <type id="railway.tram" priority="17" speed="13.89" allow="tram" oneway="1"/>

    <edge id=":18_0" function="internal">
        <lane id=":18_0_0" index="0" disallow="pedestrian tram rail_urban rail rail_electric rail_fast ship" speed="4.71" length="3.65" width="3.50" shape="976.63,-146.49 975.51,-148.28 974.53,-149.46"/>
    </edge>
    <edge id=":18_1" function="internal">
        <lane id=":18_1_0" index="0" disallow="pedestrian tram rail_urban rail rail_electric rail_fast ship" speed="36.11" length="13.90" width="3.50" shape="980.10,-145.97 982.20,-159.71"/>
    </edge>
    <edge id=":18_2" function="internal">
        <lane id=":18_2_0" index="0" disallow="pedestrian tram rail_urban rail rail_electric rail_fast ship" speed="4.81" length="4.58" width="3.50" shape="982.51,-145.60 983.68,-147.07 984.97,-148.28 985.73,-148.82"/>
    </edge>
    <edge id=":20_0" function="internal">
        <lane id=":20_0_0" index="0" disallow="pedestrian tram rail_urban rail rail_electric rail_fast ship" speed="10.27" length="25.31" width="3.50" shape="947.58,-52.05 951.10,-51.46 954.05,-51.29 956.41,-51.43 958.74,-51.90 960.41,-52.49 961.98,-53.32 963.40,-54.39 964.64,-55.66 965.68,-57.10 966.76,-59.20 967.55,-61.44 967.64,-61.86"/>
    </edge>
    <edge id=":20_1" function="internal">
        <lane id=":20_1_0" index="0" disallow="pedestrian tram rail_urban rail rail_electric rail_fast ship" speed="9.11" length="17.68" width="3.50" shape="961.41,-39.59 960.95,-40.46 959.55,-42.28 957.87,-43.86 955.98,-45.19 953.43,-46.53 950.74,-47.57 947.41,-48.50 946.86,-48.63"/>
    </edge>
    <edge id=":20_2" function="internal">
        <lane id=":20_2_0" index="0" disallow="pedestrian tram rail_urban rail rail_electric rail_fast ship" speed="36.11" length="22.96" width="3.50" shape="964.45,-39.13 965.59,-46.85 967.82,-61.84"/>
    </edge>

    <edge id="21861" from="20" to="9" priority="3" type="highway.residential" spreadType="center" length="70.01" shape="956.08,-46.87 878.45,-63.50">
        <lane id="21861_0" index="0" disallow="pedestrian tram rail_urban rail rail_electric rail_fast ship" speed="36.11" length="70.01" width="3.50" customShape="1" shape="946.86,-48.63 878.45,-63.50"/>
    </edge>
    <edge id="21862" from="10" to="20" priority="3" type="highway.residential" spreadType="center" length="70.02" shape="879.18,-66.92 956.81,-50.29">
        <lane id="21862_0" index="0" disallow="pedestrian tram rail_urban rail rail_electric rail_fast ship" speed="36.11" length="70.02" width="3.50" customShape="1" shape="879.18,-66.92 947.60,-52.04"/>
    </edge>
    <edge id="22338" from="18" to="13" priority="3" type="highway.residential" spreadType="center" length="84.34">
        <lane id="22338_0" index="0" disallow="pedestrian tram rail_urban rail rail_electric rail_fast ship" speed="36.11" length="84.34" width="3.50" customShape="1" shape="975.52,-152.65 921.48,-169.41 895.01,-177.77"/>
    </edge>
    <edge id="22339" from="16" to="17" priority="3" type="highway.residential" spreadType="center" length="70.00">
        <lane id="22339_0" index="0" disallow="pedestrian tram rail_urban rail rail_electric rail_fast ship" speed="36.11" length="70.00" width="3.49" customShape="1" shape="871.02,-188.69 886.51,-184.13 922.50,-172.76 937.89,-167.99"/>
    </edge>
    <edge id="22352" from="14" to="15" priority="3" type="highway.residential" spreadType="center" length="5.50">
        <lane id="22352_0" index="0" disallow="pedestrian tram rail_urban rail rail_electric rail_fast ship" speed="36.11" length="5.50" width="3.48" customShape="1" shape="999.33,-147.12 999.09,-147.17 998.84,-147.22 993.95,-148.28"/>
    </edge>
    <edge id="22353" from="18" to="12" priority="3" type="highway.residential" spreadType="center" length="18.67">
        <lane id="22353_0" index="0" disallow="pedestrian tram rail_urban rail rail_electric rail_fast ship" speed="36.11" length="18.67" width="3.50" customShape="1" shape="986.71,-153.40 999.82,-150.59 1000.07,-150.54 1004.96,-149.48"/>
    </edge>
    <edge id="22473" from="11" to="20" priority="3" type="highway.residential" spreadType="center" length="59.49">
        <lane id="22473_0" index="0" disallow="pedestrian tram rail_urban rail rail_electric rail_fast ship" speed="36.11" length="59.49" width="3.50" customShape="1" shape="955.63,19.70 959.27,-4.54 964.46,-39.13"/>
    </edge>
    <edge id="22475" from="20" to="18" priority="3" type="highway.residential" spreadType="center" length="85.02">
        <lane id="22475_0" index="0" disallow="pedestrian tram rail_urban rail rail_electric rail_fast ship" speed="36.11" length="85.02" width="3.50" customShape="1" shape="967.84,-61.84 974.57,-109.29 980.10,-145.97"/>
    </edge>
    <edge id="24832" from="18" to="19" priority="3" type="highway.residential" spreadType="center" length="12.30">
        <lane id="24832_0" index="0" disallow="pedestrian tram rail_urban rail rail_electric rail_fast ship" speed="36.11" length="12.30" width="3.50" customShape="1" shape="982.20,-159.71 983.74,-169.86 984.02,-171.87"/>
    </edge>

    <junction id="10" type="dead_end" x="879.18" y="-66.92" incLanes="" intLanes="" shape="878.81,-65.21 879.55,-68.63" rightOfWay="edgePriority"/>
    <junction id="11" type="dead_end" x="955.63" y="19.70" incLanes="" intLanes="" shape="957.36,19.96 953.90,19.45" rightOfWay="edgePriority"/>
    <junction id="12" type="dead_end" x="1004.96" y="-149.48" incLanes="22353_0" intLanes="" shape="1005.33,-151.19 1004.59,-147.77" rightOfWay="edgePriority"/>
    <junction id="13" type="dead_end" x="895.01" y="-177.77" incLanes="22338_0" intLanes="" shape="894.48,-176.10 895.53,-179.44" rightOfWay="edgePriority"/>
    <junction id="14" type="dead_end" x="999.33" y="-147.12" incLanes="" intLanes="" shape="999.70,-148.82 998.96,-145.41" rightOfWay="edgePriority"/>
    <junction id="15" type="dead_end" x="993.95" y="-148.28" incLanes="22352_0" intLanes="" shape="993.58,-146.58 994.32,-149.98" rightOfWay="edgePriority"/>
    <junction id="16" type="dead_end" x="871.02" y="-188.69" incLanes="" intLanes="" shape="870.53,-187.01 871.52,-190.36" rightOfWay="edgePriority"/>
    <junction id="17" type="dead_end" x="937.89" y="-167.99" incLanes="22339_0" intLanes="" shape="938.41,-169.66 937.37,-166.32" rightOfWay="edgePriority"/>
    <junction id="18" type="priority" x="979.91" y="-147.24" incLanes="22475_0" intLanes=":18_0_0 :18_1_0 :18_2_0" shape="986.35,-151.69 987.08,-155.11 985.09,-155.95 984.45,-156.59 984.04,-157.39 983.87,-158.34 983.93,-159.44 980.47,-159.97 980.06,-157.95 979.53,-156.36 978.85,-155.20 978.05,-154.48 977.11,-154.18 976.04,-154.32 975.00,-150.98 977.11,-149.91 977.80,-149.18 978.24,-148.33 978.43,-147.34 978.37,-146.23 981.83,-145.71 982.24,-147.74 982.79,-149.37 983.47,-150.57 984.29,-151.36 985.25,-151.73">
        <request index="0" response="000" foes="000" cont="0"/>
        <request index="1" response="000" foes="000" cont="0"/>
        <request index="2" response="000" foes="000" cont="0"/>
    </junction>
    <junction id="19" type="dead_end" x="984.02" y="-171.87" incLanes="24832_0" intLanes="" shape="982.29,-172.12 985.76,-171.63"/>
    <junction id="20" type="priority" x="956.41" y="-48.59" incLanes="21862_0 22473_0" intLanes=":20_0_0 :20_1_0 :20_2_0" shape="969.57,-61.59 966.11,-62.08 965.14,-58.54 963.34,-55.87 960.73,-54.05 957.30,-53.09 953.04,-52.99 947.97,-53.75 946.48,-46.92 951.61,-45.69 955.77,-44.45 958.96,-43.20 961.19,-41.94 962.44,-40.67 962.73,-39.39 966.19,-38.87">
        <request index="0" response="000" foes="100" cont="0"/>
        <request index="1" response="000" foes="000" cont="0"/>
        <request index="2" response="001" foes="001" cont="0"/>
    </junction>
    <junction id="9" type="dead_end" x="878.45" y="-63.50" incLanes="21861_0" intLanes="" shape="878.08,-61.79 878.83,-65.21" rightOfWay="edgePriority"/>

    <connection from="21862" to="22475" fromLane="0" toLane="0" contPos="-4.00" shape="947.58,-52.05 951.10,-51.46 954.05,-51.29 956.41,-51.43 958.74,-51.90 960.41,-52.49 961.98,-53.32 963.40,-54.39 964.64,-55.66 965.68,-57.10 966.76,-59.20 967.55,-61.44 968.19,-64.33 968.28,-64.91" via=":20_0_0" dir="r" state="M"/>
    <connection from="22473" to="21861" fromLane="0" toLane="0" contPos="-4.00" shape="962.91,-28.78 963.17,-31.65 963.10,-33.95 962.73,-36.23 962.02,-38.42 960.95,-40.46 959.55,-42.28 957.87,-43.86 955.98,-45.19 953.43,-46.53 950.74,-47.57 947.41,-48.50 946.86,-48.63" via=":20_1_0" dir="r" state="M"/>
    <connection from="22473" to="22475" fromLane="0" toLane="0" contPos="-4.00" shape="962.91,-28.78 965.59,-46.85 968.28,-64.91" via=":20_2_0" dir="s" state="m"/>
    <connection from="22475" to="22338" fromLane="0" toLane="0" contPos="-4.00" shape="978.33,-134.20 978.62,-137.02 978.57,-139.85 978.24,-142.10 977.63,-144.28 976.72,-146.36 975.51,-148.28 974.06,-150.02 972.40,-151.57 970.10,-153.23 967.63,-154.62 964.51,-155.98 961.82,-156.90" via=":18_0_0" dir="r" state="M"/>
    <connection from="22475" to="24832" fromLane="0" toLane="0" contPos="-4.00" via=":18_1_0" dir="s" state="M"/>
    <connection from="22475" to="22353" fromLane="0" toLane="0" contPos="-4.00" shape="978.33,-134.20 979.02,-137.66 979.86,-140.49 981.02,-143.20 982.21,-145.23 983.68,-147.07 984.97,-148.28 986.42,-149.30 987.99,-150.11 989.65,-150.69 991.97,-151.15 994.32,-151.27 997.26,-151.05 999.59,-150.64" via=":18_2_0" dir="l" state="M"/>

    <connection from=":18_0" to="22338" fromLane="0" toLane="0" dir="r" state="M"/>
    <connection from=":18_1" to="24832" fromLane="0" toLane="0" dir="s" state="M"/>
    <connection from=":18_2" to="22353" fromLane="0" toLane="0" dir="l" state="M"/>
    <connection from=":20_0" to="22475" fromLane="0" toLane="0" dir="r" state="M"/>
    <connection from=":20_1" to="21861" fromLane="0" toLane="0" dir="r" state="M"/>
    <connection from=":20_2" to="22475" fromLane="0" toLane="0" dir="s" state="M"/>

</net>