<routes>
	<vehicle depart="0.1" departLane="0" departPos="19.19404318422128" departSpeed="6.009336" id="32" type="passenger">
		<route edges=":18_0 22338"/>
	</vehicle>
	<vehicle depart="0.1" departLane="0" departPos="63.480015772286166" departSpeed="1.908106" id="310" type="passenger">
		<route edges="22475 24832"/>
	</vehicle>
	<vehicle depart="0.1" departLane="0" departPos="40.399241947113076" departSpeed="2.5313253" id="314" type="passenger">
		<route edges="22475 24832"/>
	</vehicle>
	<vehicle depart="0.1" departLane="0" departPos="34.886058447809305" departSpeed="0.058724074" id="316" type="passenger">
		<route edges="22475 24832"/>
	</vehicle>
	<vehicle depart="0.1" departLane="0" departPos="18.788829105039365" departSpeed="1.4624851" id="318" type="passenger">
		<route edges="22475 24832"/>
	</vehicle>
	<vehicle depart="0.1" departLane="0" departPos="51.38746505288502" departSpeed="1.9938156" id="311" type="motorcycle">
		<route edges="22475 24832"/>
	</vehicle>
	<vehicle depart="0.1" departLane="0" departPos="11.614735436274032" departSpeed="1.7090037" id="37" type="truck">
		<route edges="24832"/>
	</vehicle>
</routes>
