<!-- generated on 2020-12-18 16:04:43.424358 by ipykernel_launcher.py v1_2_0+5214-53edc58fcd
-->
<connections>
	<connection contPos="-4.0" from="20" fromLane="0" keepClear="true" to="28" toLane="0"/>
	<connection contPos="-4.0" from="22" fromLane="0" keepClear="true" to="33" toLane="0"/>
	<connection contPos="-4.0" from="22" fromLane="0" keepClear="true" to="300" toLane="0"/>
	<connection contPos="-4.0" from="23" fromLane="0" keepClear="true" to="29" toLane="0"/>
	<connection contPos="-4.0" from="25" fromLane="0" keepClear="true" to="34" toLane="0"/>
	<connection contPos="-4.0" from="25" fromLane="0" keepClear="true" to="31" toLane="0"/>
	<connection contPos="-4.0" from="27" fromLane="0" keepClear="true" to="35" toLane="0"/>
	<connection contPos="-4.0" from="27" fromLane="0" keepClear="true" to="32" toLane="0"/>
	<connection contPos="-4.0" from="28" fromLane="0" keepClear="true" to="22" toLane="0"/>
	<connection contPos="-4.0" from="29" fromLane="0" keepClear="true" to="21" toLane="0"/>
	<connection contPos="-4.0" from="300" fromLane="0" keepClear="true" to="26" toLane="0"/>
	<connection contPos="-4.0" from="31" fromLane="0" keepClear="true" to="23" toLane="0"/>
	<connection contPos="-4.0" from="32" fromLane="0" keepClear="true" to="23" toLane="0"/>
	<connection contPos="-4.0" from="33" fromLane="0" keepClear="true" to="24" toLane="0"/>
	<connection contPos="-4.0" from="34" fromLane="0" keepClear="true" to="26" toLane="0"/>
	<connection contPos="-4.0" from="35" fromLane="0" keepClear="true" to="24" toLane="0"/>
</connections>
