<routes>
	<vehicle depart="0.1" departLane="0" departPos="13.5965174409573" departSpeed="2.863" id="30" type="passenger">
		<route edges="26"/>
	</vehicle>
	<vehicle depart="0.1" departLane="0" departPos="79.41726584540977" departSpeed="12.9326" id="36" type="passenger">
		<route edges="23 29 21"/>
	</vehicle>
	<vehicle depart="0.1" departLane="0" departPos="0" departSpeed="8.3499" id="37" type="passenger">
		<route edges="300 26"/>
	</vehicle>
	<vehicle depart="0.1" departLane="0" departPos="34.06033912390825" departSpeed="13.8477" id="38" type="passenger">
		<route edges="23 29 21"/>
	</vehicle>
	<vehicle depart="0.1" departLane="0" departPos="19.721569626914544" departSpeed="2.309" id="39" type="passenger">
		<route edges="27 32 23 29 21"/>
	</vehicle>
	<vehicle depart="0.1" departLane="0" departPos="9.965048848781347" departSpeed="2.134" id="40" type="passenger">
		<route edges="27 32 23 29 21"/>
	</vehicle>
	<vehicle depart="0.1" departLane="0" departPos="0" departSpeed="10.631" id="41" type="passenger">
		<route edges="22 33 24"/>
	</vehicle>
	<vehicle depart="0.1" departLane="0" departPos="0" departSpeed="3.2751" id="42" type="passenger">
		<route edges="28 22 33 24"/>
	</vehicle>
</routes>
