<?xml version="1.0" encoding="UTF-8"?>

<!-- generated on Fri Dec 18 16:04:43 2020 by Eclipse SUMO netconvert Version 1.8.0
<configuration xmlns:xsi="http://www.w3.org/2001/XMLSchema-instance" xsi:noNamespaceSchemaLocation="http://sumo.dlr.de/xsd/netconvertConfiguration.xsd">

    <input>
        <node-files value="./converted_scenarios/SUMO/DEU_Muc-7_1_I-1-1/nodes.net.xml"/>
        <edge-files value="./converted_scenarios/SUMO/DEU_Muc-7_1_I-1-1/edges.net.xml"/>
        <connection-files value="./converted_scenarios/SUMO/DEU_Muc-7_1_I-1-1/_connections.net.xml"/>
        <tllogic-files value="./converted_scenarios/SUMO/DEU_Muc-7_1_I-1-1/_tll.net.xml"/>
    </input>

    <output>
        <output-file value="./converted_scenarios/SUMO/DEU_Muc-7_1_I-1-1/DEU_Muc-7_1_I-1-1.net.xml"/>
    </output>

    <processing>
        <plain.extend-edge-shape value="true"/>
        <geometry.remove.keep-edges.explicit value="true"/>
        <geometry.avoid-overlap value="true"/>
        <offset.disable-normalization value="true"/>
    </processing>

    <junctions>
        <no-turnarounds value="true"/>
        <junctions.internal-link-detail value="20"/>
    </junctions>

    <report>
        <aggregate-warnings value="5"/>
    </report>

    <random_number>
        <seed value="1234"/>
    </random_number>

</configuration>
-->

<net version="1.6" junctionCornerDetail="5" junctionLinkDetail="20" limitTurnSpeed="5.50" xmlns:xsi="http://www.w3.org/2001/XMLSchema-instance" xsi:noNamespaceSchemaLocation="http://sumo.dlr.de/xsd/net_file.xsd">

    <location netOffset="0.00,0.00" convBoundary="-74.46,-71.17,81.67,68.14" origBoundary="-74.46,-71.17,81.67,68.14" projParameter="!"/>

    <edge id=":12_0" function="internal">
        <lane id=":12_0_0" index="0" disallow="bus truck rail_fast" speed="6.96" length="9.66" width="2.50" shape="77.40,51.09 76.97,50.50 76.54,49.96 76.11,49.46 75.68,49.00 75.25,48.59 74.83,48.22 74.40,47.89 73.98,47.61 73.56,47.37 73.15,47.17 72.73,47.02 72.32,46.91 71.91,46.84 71.50,46.82 71.09,46.84 70.68,46.90 70.28,47.01 69.87,47.16 69.47,47.35"/>
    </edge>
    <edge id=":12_1" function="internal">
        <lane id=":12_1_0" index="0" disallow="bus truck rail_fast" speed="36.11" length="8.55" width="2.50" shape="77.40,51.09 72.50,44.07"/>
    </edge>
    <edge id=":13_0" function="internal">
        <lane id=":13_0_0" index="0" disallow="bus truck rail_fast" speed="26.17" length="4.06" width="2.50" shape="67.67,48.46 67.43,48.63 67.21,48.79 67.01,48.93 66.83,49.07 66.67,49.19 66.52,49.31 66.38,49.43 66.26,49.54 66.14,49.65 66.03,49.77 65.92,49.89 65.81,50.02 65.70,50.15 65.58,50.30 65.45,50.46 65.31,50.64 65.16,50.83 64.99,51.05 64.80,51.28"/>
    </edge>
    <edge id=":13_1" function="internal">
        <lane id=":13_1_0" index="0" disallow="bus truck rail_fast" speed="36.11" length="10.36" width="2.50" shape="71.89,43.75 71.43,44.35 71.00,44.88 70.60,45.35 70.22,45.77 69.86,46.15 69.52,46.50 69.18,46.82 68.86,47.11 68.54,47.40 68.22,47.68 67.90,47.97 67.57,48.27 67.24,48.58 66.89,48.92 66.52,49.30 66.13,49.71 65.72,50.18 65.28,50.70 64.80,51.28"/>
    </edge>
    <edge id=":16_0" function="internal">
        <lane id=":16_0_0" index="0" disallow="bus truck rail_fast" speed="8.81" length="12.54" width="2.50" shape="63.22,49.27 63.90,48.39 64.54,47.54 65.13,46.73 65.68,45.96 66.18,45.21 66.64,44.50 67.05,43.83 67.42,43.19 67.74,42.58 68.02,42.00 68.26,41.46 68.45,40.95 68.59,40.48 68.69,40.04 68.74,39.64 68.75,39.26 68.72,38.92 68.64,38.62 68.51,38.35"/>
    </edge>
    <edge id=":16_1" function="internal">
        <lane id=":16_1_0" index="0" disallow="bus truck rail_fast" speed="8.14" length="11.81" width="2.50" shape="63.22,49.27 63.79,48.57 64.35,47.92 64.90,47.32 65.45,46.76 65.99,46.25 66.53,45.80 67.06,45.39 67.58,45.02 68.10,44.71 68.62,44.44 69.13,44.22 69.63,44.05 70.12,43.93 70.62,43.86 71.10,43.83 71.58,43.85 72.05,43.92 72.52,44.04 72.98,44.20"/>
    </edge>
    <edge id=":2_0" function="internal">
        <lane id=":2_0_0" index="0" disallow="bus truck rail_fast" speed="36.11" length="0.25" width="2.50" shape="-59.32,-66.16 -59.09,-66.07"/>
    </edge>
    <edge id=":3_0" function="internal">
        <lane id=":3_0_0" index="0" disallow="bus truck rail_fast" speed="36.11" length="2.95" width="2.50" shape="-58.67,-63.23 -61.44,-64.25"/>
    </edge>
    <edge id=":5_0" function="internal">
        <lane id=":5_0_0" index="0" disallow="bus truck rail_fast" speed="36.11" length="3.00" width="2.50" shape="-50.71,-62.72 -47.96,-61.54"/>
    </edge>
    <edge id=":6_0" function="internal">
        <lane id=":6_0_0" index="0" disallow="bus truck rail_fast" speed="36.11" length="9.62" width="2.50" shape="69.01,34.55 74.44,42.48"/>
    </edge>
    <edge id=":6_1" function="internal">
        <lane id=":6_1_0" index="0" disallow="bus truck rail_fast" speed="7.72" length="9.96" width="2.50" shape="69.01,34.55 69.48,35.26 69.91,35.95 70.31,36.61 70.68,37.25 71.01,37.85 71.31,38.44 71.57,38.99 71.80,39.52 71.99,40.02 72.15,40.50 72.27,40.95 72.36,41.37 72.41,41.77 72.43,42.14 72.42,42.48 72.37,42.80 72.29,43.09 72.17,43.36 72.02,43.59"/>
    </edge>
    <edge id=":7_0" function="internal">
        <lane id=":7_0_0" index="0" disallow="bus truck rail_fast" speed="36.11" length="9.76" width="2.50" shape="72.39,43.91 66.88,35.85"/>
    </edge>
    <edge id=":7_1" function="internal">
        <lane id=":7_1_0" index="0" disallow="bus truck rail_fast" speed="36.11" length="2.58" width="2.50" shape="68.31,38.00 66.88,35.85"/>
    </edge>
    <edge id=":8_0" function="internal">
        <lane id=":8_0_0" index="0" disallow="bus truck rail_fast" speed="36.11" length="3.00" width="2.50" shape="-48.95,-59.24 -51.71,-60.43"/>
    </edge>
    <edge id=":9_0" function="internal">
        <lane id=":9_0_0" index="0" disallow="bus truck rail_fast" speed="36.11" length="8.51" width="2.50" shape="74.56,42.65 79.43,49.63"/>
    </edge>
    <edge id=":9_1" function="internal">
        <lane id=":9_1_0" index="0" disallow="bus truck rail_fast" speed="12.61" length="8.44" width="2.50" shape="73.17,44.28 73.74,44.52 74.25,44.74 74.72,44.95 75.13,45.15 75.51,45.35 75.85,45.55 76.16,45.75 76.44,45.96 76.70,46.17 76.95,46.40 77.19,46.65 77.43,46.91 77.67,47.20 77.91,47.52 78.17,47.86 78.45,48.24 78.74,48.66 79.07,49.12 79.43,49.63"/>
    </edge>

    <edge id="20" from="1" to="2" priority="1" spreadType="center" length="15.29">
        <lane id="20_0" index="0" disallow="rail_fast" speed="36.11" length="15.29" width="2.50" customShape="1" shape="-73.64,-71.17 -66.42,-68.64 -59.32,-66.16"/>
    </edge>
    <edge id="21" from="3" to="4" priority="1" spreadType="center" length="15.27">
        <lane id="21_0" index="0" disallow="rail_fast" speed="36.11" length="15.27" width="2.50" customShape="1" shape="-61.44,-64.25 -67.25,-66.29 -74.46,-68.81"/>
    </edge>
    <edge id="22" from="5" to="6" priority="1" spreadType="center" length="156.98">
        <lane id="22_0" index="0" disallow="bus truck rail_fast" speed="36.11" length="156.98" width="2.50" customShape="1" shape="-47.96,-61.54 -36.31,-56.51 -28.98,-53.07 -23.19,-49.94 -18.46,-47.00 -13.94,-43.75 0.27,-32.33 23.96,-12.50 33.19,-4.59 40.62,2.28 48.18,9.76 55.82,17.88 61.50,24.35 65.90,29.90 69.01,34.55"/>
    </edge>
    <edge id="23" from="7" to="8" priority="1" spreadType="center" length="155.52">
        <lane id="23_0" index="0" disallow="bus truck rail_fast" speed="36.11" length="155.52" width="2.50" customShape="1" shape="66.88,35.85 63.87,31.36 59.54,25.90 53.91,19.50 46.34,11.46 38.85,4.05 31.48,-2.77 22.31,-10.62 -1.26,-30.34 -15.36,-41.69 -19.79,-44.89 -24.43,-47.78 -30.14,-50.85 -37.39,-54.26 -48.95,-59.24"/>
    </edge>
    <edge id="24" from="9" to="10" priority="1" spreadType="center" length="5.60">
        <lane id="24_0" index="0" disallow="rail_fast" speed="36.11" length="5.60" width="2.50" customShape="1" shape="79.43,49.63 80.04,50.49 81.67,52.76"/>
    </edge>
    <edge id="25" from="11" to="12" priority="1" spreadType="center" length="5.58">
        <lane id="25_0" index="0" disallow="rail_fast" speed="36.11" length="5.58" width="2.50" customShape="1" shape="79.63,54.21 78.01,51.94 77.40,51.09"/>
    </edge>
    <edge id="26" from="13" to="14" priority="1" spreadType="center" length="21.70">
        <lane id="26_0" index="0" disallow="bus truck rail_fast" speed="36.11" length="21.70" width="2.50" customShape="1" shape="64.80,51.28 64.32,51.90 63.60,53.16 63.10,54.51 62.88,55.94 62.97,57.38 63.28,58.29 64.01,59.55 66.12,62.77 68.93,66.70"/>
    </edge>
    <edge id="27" from="15" to="16" priority="1" spreadType="center" length="25.49">
        <lane id="27_0" index="0" disallow="bus truck rail_fast" speed="36.11" length="25.49" width="2.50" customShape="1" shape="66.89,68.14 63.83,63.84 61.48,60.17 60.77,58.60 60.47,57.37 60.42,55.52 60.73,53.73 61.36,52.06 62.23,50.53 63.22,49.27"/>
    </edge>
    <edge id="28" from="2" to="5" priority="1" spreadType="center" length="10.65">
        <lane id="28_0" index="0" disallow="bus truck rail_fast" speed="36.11" length="10.65" width="2.50" customShape="1" shape="-59.09,-66.07 -53.68,-63.99 -50.71,-62.72"/>
    </edge>
    <edge id="29" from="8" to="3" priority="1" spreadType="center" length="10.49">
        <lane id="29_0" index="0" disallow="bus truck rail_fast" speed="36.11" length="10.49" width="2.50" customShape="1" shape="-51.71,-60.43 -54.62,-61.67 -58.67,-63.23"/>
    </edge>
    <edge id="300" from="6" to="13" priority="1" spreadType="center" length="13.68">
        <lane id="300_0" index="0" disallow="bus truck rail_fast" speed="36.11" length="13.68" width="2.50" customShape="1" shape="72.02,43.59 71.89,43.75"/>
    </edge>
    <edge id="31" from="12" to="7" priority="1" spreadType="center" length="14.19">
        <lane id="31_0" index="0" disallow="bus truck rail_fast" speed="36.11" length="14.19" width="2.50" customShape="1" shape="72.50,44.07 72.39,43.91"/>
    </edge>
    <edge id="32" from="16" to="7" priority="1" spreadType="center" length="9.91">
        <lane id="32_0" index="0" disallow="bus truck rail_fast" speed="36.11" length="9.91" width="2.50" customShape="1" shape="68.51,38.35 68.31,38.00"/>
    </edge>
    <edge id="33" from="6" to="9" priority="1" spreadType="center" length="14.07">
        <lane id="33_0" index="0" disallow="bus truck rail_fast" speed="36.11" length="14.07" width="2.50" customShape="1" shape="74.44,42.48 74.56,42.65"/>
    </edge>
    <edge id="34" from="12" to="13" priority="1" spreadType="center" length="10.16">
        <lane id="34_0" index="0" disallow="bus truck rail_fast" speed="36.11" length="10.16" width="2.50" customShape="1" shape="69.47,47.35 68.60,47.82 67.67,48.46"/>
    </edge>
    <edge id="35" from="16" to="9" priority="1" spreadType="center" length="14.23">
        <lane id="35_0" index="0" disallow="bus truck rail_fast" speed="36.11" length="14.23" width="2.50" customShape="1" shape="72.98,44.20 73.17,44.28"/>
    </edge>

    <junction id="1" type="dead_end" x="-73.64" y="-71.17" incLanes="" intLanes="" shape="-74.05,-69.99 -73.22,-72.35"/>
    <junction id="10" type="dead_end" x="81.67" y="52.76" incLanes="24_0" intLanes="" shape="82.68,52.03 80.65,53.48"/>
    <junction id="11" type="dead_end" x="79.63" y="54.21" incLanes="" intLanes="" shape="80.65,53.49 78.61,54.94"/>
    <junction id="12" type="priority" x="76.39" y="49.67" incLanes="25_0" intLanes=":12_0_0 :12_1_0" shape="76.38,51.82 78.42,50.36 73.07,42.70 71.02,44.13 71.28,44.78 71.23,45.06 71.07,45.30 70.78,45.51 70.30,45.72 68.39,49.48">
        <request index="0" response="00" foes="00" cont="0"/>
        <request index="1" response="00" foes="00" cont="0"/>
    </junction>
    <junction id="13" type="priority" x="67.67" y="48.46" incLanes="34_0 300_0" intLanes=":13_0_0 :13_1_0" shape="64.00,50.29 65.61,52.28 76.19,51.42 75.67,47.03 74.26,45.33 73.77,44.46 73.44,43.57 73.25,42.68 73.21,41.78 70.48,39.63 70.06,41.58 69.19,43.14 67.89,45.11 66.16,47.49">
        <request index="0" response="00" foes="10" cont="0"/>
        <request index="1" response="01" foes="01" cont="0"/>
    </junction>
    <junction id="14" type="dead_end" x="68.93" y="66.70" incLanes="26_0" intLanes="" shape="69.95,65.97 67.91,67.43"/>
    <junction id="15" type="dead_end" x="66.89" y="68.14" incLanes="" intLanes="" shape="67.91,67.42 65.87,68.87"/>
    <junction id="16" type="priority" x="66.14" y="46.49" incLanes="27_0" intLanes=":16_0_0 :16_1_0" shape="62.42,48.27 64.03,50.26 66.15,47.88 68.20,46.22 70.16,45.30 72.05,45.11 73.85,45.66 75.54,46.91 74.31,43.40 72.61,42.41 71.90,41.77 71.28,41.02 70.75,40.17 70.31,39.22 66.51,37.39">
        <request index="0" response="00" foes="00" cont="0"/>
        <request index="1" response="00" foes="00" cont="0"/>
    </junction>
    <junction id="2" type="priority" x="-59.20" y="-66.12" incLanes="20_0" intLanes=":2_0_0" shape="-59.54,-64.91 -58.64,-67.24 -58.91,-67.34 -59.74,-64.98">
        <request index="0" response="0" foes="0" cont="0"/>
    </junction>
    <junction id="3" type="priority" x="-60.05" y="-63.77" incLanes="29_0" intLanes=":3_0_0" shape="-59.12,-62.07 -58.22,-64.40 -61.03,-65.43 -61.86,-63.07">
        <request index="0" response="0" foes="0" cont="0"/>
    </junction>
    <junction id="4" type="dead_end" x="-74.46" y="-68.81" incLanes="21_0" intLanes="" shape="-74.88,-67.63 -74.05,-69.99"/>
    <junction id="5" type="priority" x="-49.33" y="-62.13" incLanes="28_0" intLanes=":5_0_0" shape="-48.45,-60.39 -47.46,-62.68 -50.22,-63.87 -51.20,-61.57">
        <request index="0" response="0" foes="0" cont="0"/>
    </junction>
    <junction id="6" type="priority" x="70.40" y="36.63" incLanes="22_0" intLanes=":6_0_0 :6_1_0" shape="74.53,44.81 76.61,43.41 70.05,33.85 67.97,35.24 69.24,37.41 70.04,39.42 70.37,41.28 70.24,42.99 69.64,44.55 68.58,45.95 72.28,45.09 73.00,44.16 73.37,44.01 73.75,44.07 74.14,44.33">
        <request index="0" response="00" foes="00" cont="0"/>
        <request index="1" response="00" foes="00" cont="0"/>
    </junction>
    <junction id="7" type="priority" x="68.31" y="38.00" incLanes="31_0 32_0" intLanes=":7_0_0 :7_1_0" shape="71.81,45.27 73.89,43.88 67.92,35.16 65.84,36.55 64.95,45.85 69.09,45.36 70.05,44.51 70.51,44.39 70.95,44.48 71.39,44.77">
        <request index="0" response="10" foes="10" cont="0"/>
        <request index="1" response="00" foes="01" cont="0"/>
    </junction>
    <junction id="8" type="priority" x="-50.33" y="-59.84" incLanes="23_0" intLanes=":8_0_0" shape="-49.45,-58.10 -48.46,-60.39 -51.22,-61.58 -52.20,-59.28">
        <request index="0" response="0" foes="0" cont="0"/>
    </junction>
    <junction id="9" type="priority" x="78.41" y="48.20" incLanes="33_0 35_0" intLanes=":9_0_0 :9_1_0" shape="78.41,50.36 80.45,48.90 74.45,40.31 72.40,41.73 72.65,42.34 72.59,42.57 72.41,42.75 72.10,42.88 71.68,42.97 69.50,45.97 72.55,45.75 74.05,46.27 75.53,47.22 76.98,48.58">
        <request index="0" response="00" foes="10" cont="0"/>
        <request index="1" response="01" foes="01" cont="0"/>
    </junction>

    <connection from="20" to="28" fromLane="0" toLane="0" contPos="-4.00" via=":2_0_0" dir="s" state="M"/>
    <connection from="22" to="33" fromLane="0" toLane="0" contPos="-4.00" via=":6_0_0" dir="s" state="M"/>
    <connection from="22" to="300" fromLane="0" toLane="0" contPos="-4.00" via=":6_1_0" dir="l" state="M"/>
    <connection from="23" to="29" fromLane="0" toLane="0" contPos="-4.00" via=":8_0_0" dir="s" state="M"/>
    <connection from="25" to="34" fromLane="0" toLane="0" contPos="-4.00" via=":12_0_0" dir="r" state="M"/>
    <connection from="25" to="31" fromLane="0" toLane="0" contPos="-4.00" via=":12_1_0" dir="s" state="M"/>
    <connection from="27" to="32" fromLane="0" toLane="0" contPos="-4.00" via=":16_0_0" dir="s" state="M"/>
    <connection from="27" to="35" fromLane="0" toLane="0" contPos="-4.00" via=":16_1_0" dir="l" state="M"/>
    <connection from="28" to="22" fromLane="0" toLane="0" contPos="-4.00" via=":5_0_0" dir="s" state="M"/>
    <connection from="29" to="21" fromLane="0" toLane="0" contPos="-4.00" via=":3_0_0" dir="s" state="M"/>
    <connection from="300" to="26" fromLane="0" toLane="0" contPos="-4.00" via=":13_1_0" dir="s" state="m"/>
    <connection from="31" to="23" fromLane="0" toLane="0" contPos="-4.00" via=":7_0_0" dir="s" state="m"/>
    <connection from="32" to="23" fromLane="0" toLane="0" contPos="-4.00" via=":7_1_0" dir="r" state="M"/>
    <connection from="33" to="24" fromLane="0" toLane="0" contPos="-4.00" via=":9_0_0" dir="s" state="M"/>
    <connection from="34" to="26" fromLane="0" toLane="0" contPos="-4.00" via=":13_0_0" dir="r" state="M"/>
    <connection from="35" to="24" fromLane="0" toLane="0" contPos="-4.00" via=":9_1_0" dir="l" state="m"/>

    <connection from=":12_0" to="34" fromLane="0" toLane="0" dir="r" state="M"/>
    <connection from=":12_1" to="31" fromLane="0" toLane="0" dir="s" state="M"/>
    <connection from=":13_0" to="26" fromLane="0" toLane="0" dir="r" state="M"/>
    <connection from=":13_1" to="26" fromLane="0" toLane="0" dir="s" state="M"/>
    <connection from=":16_0" to="32" fromLane="0" toLane="0" dir="s" state="M"/>
    <connection from=":16_1" to="35" fromLane="0" toLane="0" dir="l" state="M"/>
    <connection from=":2_0" to="28" fromLane="0" toLane="0" dir="s" state="M"/>
    <connection from=":3_0" to="21" fromLane="0" toLane="0" dir="s" state="M"/>
    <connection from=":5_0" to="22" fromLane="0" toLane="0" dir="s" state="M"/>
    <connection from=":6_0" to="33" fromLane="0" toLane="0" dir="s" state="M"/>
    <connection from=":6_1" to="300" fromLane="0" toLane="0" dir="l" state="M"/>
    <connection from=":7_0" to="23" fromLane="0" toLane="0" dir="s" state="M"/>
    <connection from=":7_1" to="23" fromLane="0" toLane="0" dir="r" state="M"/>
    <connection from=":8_0" to="29" fromLane="0" toLane="0" dir="s" state="M"/>
    <connection from=":9_0" to="24" fromLane="0" toLane="0" dir="s" state="M"/>
    <connection from=":9_1" to="24" fromLane="0" toLane="0" dir="l" state="M"/>

</net>
