<!-- generated on 2020-12-18 16:04:43.266297 by ipykernel_launcher.py v1_2_0+5214-53edc58fcd
-->
<edges>
	<edge from="1" function="normal" id="20" length="15.290748585501113" numLanes="1" priority="1" speed="36.11111111111111" spreadType="center" to="2">
		<lane allow="moped bicycle pedestrian custom1 trailer evehicle rail_urban ship private truck vip custom2 authority delivery rail_electric taxi tram army hov coach motorcycle passenger bus rail emergency" index="0" length="15.290748585501113" shape="-73.6365,-71.17195 -66.4198,-68.6449 -59.20495,-66.1185" speed="36.11111111111111" width="2.4997125294721325"/>
	</edge>
	<edge from="3" function="normal" id="21" length="15.271262596438152" numLanes="1" priority="1" speed="36.11111111111111" spreadType="center" to="4">
		<lane allow="moped bicycle pedestrian custom1 trailer evehicle rail_urban ship private truck vip custom2 authority delivery rail_electric taxi tram army hov coach motorcycle passenger bus rail emergency" index="0" length="15.271262596438152" shape="-60.04945,-63.765699999999995 -67.24605,-66.28535 -74.4627,-68.81245" speed="36.11111111111111" width="2.4999693378119634"/>
	</edge>
	<edge from="5" function="normal" id="22" length="156.97560929368404" numLanes="1" priority="1" speed="36.11111111111111" spreadType="center" to="6">
		<lane allow="moped bicycle pedestrian custom1 trailer evehicle rail_urban ship private vip custom2 authority delivery rail_electric taxi tram army hov coach motorcycle passenger rail emergency" index="0" length="156.97560929368404" shape="-49.332499999999996,-62.13164999999999 -36.3142,-56.512699999999995 -28.98185,-53.0666 -23.18705,-49.94425 -18.4569,-47.00425 -13.93645,-43.75045 0.26975000000000005,-32.3257 23.9615,-12.50295 33.188950000000006,-4.5936 40.6225,2.2847999999999997 48.1814,9.7646 55.8156,17.878149999999998 61.495599999999996,24.34665 65.9002,29.90115 70.4031,36.6332" speed="36.11111111111111" width="2.4988031214963664"/>
	</edge>
	<edge from="7" function="normal" id="23" length="155.51981822495122" numLanes="1" priority="1" speed="36.11111111111111" spreadType="center" to="8">
		<lane allow="moped bicycle pedestrian custom1 trailer evehicle rail_urban ship private vip custom2 authority delivery rail_electric taxi tram army hov coach motorcycle passenger rail emergency" index="0" length="155.51981822495122" shape="68.31020000000001,37.99905 63.8728,31.36255 59.5359,25.8996 53.9135,19.50225 46.34195,11.4589 38.846149999999994,4.04505 31.477400000000003,-2.7704 22.313499999999998,-10.622150000000001 -1.2556500000000002,-30.344 -15.3604,-41.6927 -19.7949,-44.89205 -24.433100000000003,-47.7776 -30.13785,-50.8502 -37.38965,-54.25505 -50.32925,-59.839" speed="36.11111111111111" width="2.4998740948295826"/>
	</edge>
	<edge from="9" function="normal" id="24" length="5.600317341537361" numLanes="1" priority="1" speed="36.11111111111111" spreadType="center" to="10">
		<lane allow="moped bicycle pedestrian custom1 trailer evehicle rail_urban ship private truck vip custom2 authority delivery rail_electric taxi tram army hov coach motorcycle passenger bus rail emergency" index="0" length="5.600317341537361" shape="78.40955,48.20165 80.043,50.486900000000006 81.6656,52.75815" speed="36.11111111111111" width="2.4999519755387416"/>
	</edge>
	<edge from="11" function="normal" id="25" length="5.583548480458763" numLanes="1" priority="1" speed="36.11111111111111" spreadType="center" to="12">
		<lane allow="moped bicycle pedestrian custom1 trailer evehicle rail_urban ship private truck vip custom2 authority delivery rail_electric taxi tram army hov coach motorcycle passenger bus rail emergency" index="0" length="5.583548480458763" shape="79.63135,54.2114 78.0088,51.94015 76.3856,49.66815" speed="36.11111111111111" width="2.498834050112174"/>
	</edge>
	<edge from="13" function="normal" id="26" length="21.70416785366915" numLanes="1" priority="1" speed="36.11111111111111" spreadType="center" to="14">
		<lane allow="moped bicycle pedestrian custom1 trailer evehicle rail_urban ship private vip custom2 authority delivery rail_electric taxi tram army hov coach motorcycle passenger rail emergency" index="0" length="21.70416785366915" shape="67.6748,48.459649999999996 66.91985,49.06285 65.5144,50.38485 64.31790000000001,51.8973 63.604749999999996,53.156099999999995 63.103699999999996,54.5126 62.878299999999996,55.94025 62.9715,57.381600000000006 63.2815,58.293549999999996 64.00665000000001,59.5452 66.12215,62.774950000000004 68.92995,66.70085" speed="36.11111111111111" width="2.4979060931107866"/>
	</edge>
	<edge from="15" function="normal" id="27" length="25.48765154544536" numLanes="1" priority="1" speed="36.11111111111111" spreadType="center" to="16">
		<lane allow="moped bicycle pedestrian custom1 trailer evehicle rail_urban ship private vip custom2 authority delivery rail_electric taxi tram army hov coach motorcycle passenger rail emergency" index="0" length="25.48765154544536" shape="66.88705,68.14185 63.82905,63.83765 61.4833,60.1746 60.7675,58.5994 60.4679,57.36595 60.415549999999996,55.52055 60.73355,53.7348 61.3617,52.062 62.232299999999995,50.5254 63.6443,48.730000000000004 65.2699,47.185500000000005 66.1428,46.48525" speed="36.11111111111111" width="2.5000525154484285"/>
	</edge>
	<edge from="2" function="normal" id="28" length="10.648776467438282" numLanes="1" priority="1" speed="36.11111111111111" spreadType="center" to="5">
		<lane allow="moped bicycle pedestrian custom1 trailer evehicle rail_urban ship private vip custom2 authority delivery rail_electric taxi tram army hov coach motorcycle passenger rail emergency" index="0" length="10.648776467438282" shape="-59.20495,-66.1185 -53.684250000000006,-63.991 -49.332499999999996,-62.13164999999999" speed="36.11111111111111" width="2.4997125294721325"/>
	</edge>
	<edge from="8" function="normal" id="29" length="10.485058665989365" numLanes="1" priority="1" speed="36.11111111111111" spreadType="center" to="3">
		<lane allow="moped bicycle pedestrian custom1 trailer evehicle rail_urban ship private vip custom2 authority delivery rail_electric taxi tram army hov coach motorcycle passenger rail emergency" index="0" length="10.485058665989365" shape="-50.32925,-59.839 -54.6184,-61.672250000000005 -60.04945,-63.765699999999995" speed="36.11111111111111" width="2.5000000499999966"/>
	</edge>
	<edge from="6" function="normal" id="300" length="13.675063284807276" numLanes="1" priority="1" speed="36.11111111111111" spreadType="center" to="13">
		<lane allow="moped bicycle pedestrian custom1 trailer evehicle rail_urban ship private vip custom2 authority delivery rail_electric taxi tram army hov coach motorcycle passenger rail emergency" index="0" length="13.675063284807276" shape="70.4031,36.6332 71.16435,37.9521 71.72049999999999,39.365899999999996 71.99879999999999,40.858 71.938,42.37425 71.52345,43.834649999999996 70.81545,45.17855 69.89795000000001,46.390299999999996 68.83574999999999,47.478300000000004 67.6748,48.459649999999996" speed="36.11111111111111" width="2.4979060931107866"/>
	</edge>
	<edge from="12" function="normal" id="31" length="14.190986984942699" numLanes="1" priority="1" speed="36.11111111111111" spreadType="center" to="7">
		<lane allow="moped bicycle pedestrian custom1 trailer evehicle rail_urban ship private vip custom2 authority delivery rail_electric taxi tram army hov coach motorcycle passenger rail emergency" index="0" length="14.190986984942699" shape="76.3856,49.66815 68.9332,38.92975 68.31020000000001,37.99905" speed="36.11111111111111" width="2.498834050112174"/>
	</edge>
	<edge from="16" function="normal" id="32" length="9.913854523189126" numLanes="1" priority="1" speed="36.11111111111111" spreadType="center" to="7">
		<lane allow="moped bicycle pedestrian custom1 trailer evehicle rail_urban ship private vip custom2 authority delivery rail_electric taxi tram army hov coach motorcycle passenger rail emergency" index="0" length="9.913854523189126" shape="66.1428,46.48525 67.06235,45.71025 67.88810000000001,44.873599999999996 68.5817,43.97755 69.1011,43.0291 69.40245,42.04575 69.46035,41.03545 69.28215,40.0137 68.89054999999999,39.0013 68.31020000000001,37.99905" speed="36.11111111111111" width="2.4998740948295826"/>
	</edge>
	<edge from="6" function="normal" id="33" length="14.068965899675614" numLanes="1" priority="1" speed="36.11111111111111" spreadType="center" to="9">
		<lane allow="moped bicycle pedestrian custom1 trailer evehicle rail_urban ship private vip custom2 authority delivery rail_electric taxi tram army hov coach motorcycle passenger rail emergency" index="0" length="14.068965899675614" shape="70.4031,36.6332 71.00305,37.5278 78.40955,48.20165" speed="36.11111111111111" width="2.4988031214963664"/>
	</edge>
	<edge from="12" function="normal" id="34" length="10.161626641421462" numLanes="1" priority="1" speed="36.11111111111111" spreadType="center" to="13">
		<lane allow="moped bicycle pedestrian custom1 trailer evehicle rail_urban ship private vip custom2 authority delivery rail_electric taxi tram army hov coach motorcycle passenger rail emergency" index="0" length="10.161626641421462" shape="76.3856,49.66815 75.67965000000001,48.78615 74.87295,47.99485 73.94579999999999,47.35065 72.90365,46.918949999999995 71.7856,46.7722 70.6662,46.9124 69.5992,47.28215 68.60275,47.81525 67.6748,48.459649999999996" speed="36.11111111111111" width="2.4979060931107866"/>
	</edge>
	<edge from="16" function="normal" id="35" length="14.228482580906453" numLanes="1" priority="1" speed="36.11111111111111" spreadType="center" to="9">
		<lane allow="moped bicycle pedestrian custom1 trailer evehicle rail_urban ship private vip custom2 authority delivery rail_electric taxi tram army hov coach motorcycle passenger rail emergency" index="0" length="14.228482580906453" shape="66.1428,46.48525 67.377,45.6292 68.73065,44.9106 70.2345,44.39805 71.87065000000001,44.20285 73.5332,44.42635 75.06360000000001,45.05585 76.3759,45.9648 77.47915,47.04185 78.40955,48.20165" speed="36.11111111111111" width="2.500116001308736"/>
	</edge>
</edges>
