<!-- generated on 2020-12-18 16:04:43.344963 by ipykernel_launcher.py v1_2_0+5214-53edc58fcd
-->
<nodes>
	<node id="1" type="from" x="-73.6365" y="-71.17195"/>
	<node id="2" type="to" x="-59.20495" y="-66.1185"/>
	<node id="3" type="from" x="-60.04945" y="-63.765699999999995"/>
	<node id="4" type="to" x="-74.4627" y="-68.81245"/>
	<node id="5" type="from" x="-49.332499999999996" y="-62.13164999999999"/>
	<node id="6" type="to" x="70.4031" y="36.6332"/>
	<node id="7" type="from" x="68.31020000000001" y="37.99905"/>
	<node id="8" type="to" x="-50.32925" y="-59.839"/>
	<node id="9" type="from" x="78.40955" y="48.20165"/>
	<node id="10" type="to" x="81.6656" y="52.75815"/>
	<node id="11" type="from" x="79.63135" y="54.2114"/>
	<node id="12" type="to" x="76.3856" y="49.66815"/>
	<node id="13" type="from" x="67.6748" y="48.459649999999996"/>
	<node id="14" type="to" x="68.92995" y="66.70085"/>
	<node id="15" type="from" x="66.88705" y="68.14185"/>
	<node id="16" type="to" x="66.1428" y="46.48525"/>
</nodes>
