<!-- generated on 2020-12-18 16:50:41.724321 by ipykernel_launcher.py v1_2_0+5214-53edc58fcd
-->
<tlLogics/>
