<!-- generated on 2020-12-18 16:50:41.552904 by ipykernel_launcher.py v1_2_0+5214-53edc58fcd
-->
<nodes>
	<node id="1" type="from" x="-12.15985" y="28.1542"/>
	<node id="2" type="to" x="-12.2768" y="-9.36875"/>
	<node id="3" type="from" x="107.5697" y="20.09565"/>
	<node id="4" type="to" x="-5.3589" y="-13.7009"/>
	<node id="5" type="from" x="-4.6451" y="-16.09425"/>
	<node id="6" type="to" x="108.28645" y="17.70055"/>
	<node id="7" type="from" x="22.9073" y="42.9734"/>
	<node id="8" type="to" x="34.4854" y="46.4842"/>
	<node id="9" type="from" x="33.75985" y="48.876599999999996"/>
	<node id="10" type="to" x="22.16" y="45.35855"/>
	<node id="11" type="from" x="67.94055" y="30.36055"/>
	<node id="12" type="to" x="28.87525" y="17.65455"/>
	<node id="13" type="from" x="29.70325" y="15.296199999999999"/>
	<node id="14" type="to" x="68.6819" y="27.973"/>
	<node id="15" type="from" x="-4.546250000000001" y="34.6479"/>
	<node id="16" type="to" x="8.88625" y="38.72125"/>
	<node id="17" type="from" x="8.183" y="41.119749999999996"/>
	<node id="18" type="to" x="-5.26525" y="37.04055"/>
	<node id="19" type="from" x="-12.749649999999999" y="52.906549999999996"/>
	<node id="20" type="to" x="-12.360800000000001" y="41.157849999999996"/>
	<node id="21" type="from" x="16.22265" y="34.1867"/>
	<node id="22" type="to" x="19.104300000000002" y="21.1281"/>
	<node id="23" type="from" x="21.5381" y="21.697"/>
	<node id="24" type="to" x="18.66235" y="34.72855"/>
	<node id="25" type="from" x="-6.302350000000001" y="-37.273849999999996"/>
	<node id="26" type="to" x="3.11845" y="-77.57"/>
	<node id="27" type="from" x="111.25055" y="4.7275"/>
	<node id="28" type="to" x="-1.79855" y="-28.3351"/>
	<node id="29" type="from" x="-1.0803" y="-30.72665"/>
	<node id="30" type="to" x="111.84295" y="2.2987"/>
	<node id="31" type="from" x="-9.8911" y="-22.908949999999997"/>
	<node id="32" type="to" x="-9.38405" y="-24.8526"/>
</nodes>
