<!-- generated on Tue Feb  9 22:16:08 2021 by Eclipse SUMO netconvert Version 1.8.0
<configuration xmlns:xsi="http://www.w3.org/2001/XMLSchema-instance" xsi:noNamespaceSchemaLocation="http://sumo.dlr.de/xsd/netconvertConfiguration.xsd">

    <input>
        <node-files value="./converted_scenarios/scenario-factory/HRV_Pula-30_1_I-1-1/HRV_Pula-30_1_I-1-1.nod.xml"/>
        <edge-files value="./converted_scenarios/scenario-factory/HRV_Pula-30_1_I-1-1/HRV_Pula-30_1_I-1-1.edg.xml"/>
        <connection-files value="./converted_scenarios/scenario-factory/HRV_Pula-30_1_I-1-1/HRV_Pula-30_1_I-1-1.con.xml"/>
        <tllogic-files value="./converted_scenarios/scenario-factory/HRV_Pula-30_1_I-1-1/HRV_Pula-30_1_I-1-1.tll.xml"/>
        <type-files value="/home/zen/commonroad-interactive-benchmarks/install/commonroad-map-tool/crmapconverter/sumo_map/templates/DEU.typ.xml"/>
    </input>

    <output>
        <output-file value="./converted_scenarios/scenario-factory/HRV_Pula-30_1_I-1-1/HRV_Pula-30_1_I-1-1.net.xml"/>
    </output>

    <processing>
        <geometry.remove.keep-edges.explicit value="true"/>
        <geometry.avoid-overlap value="true"/>
        <offset.disable-normalization value="true"/>
    </processing>

    <junctions>
        <no-turnarounds value="true"/>
        <junctions.internal-link-detail value="20"/>
    </junctions>

    <report>
        <aggregate-warnings value="5"/>
    </report>

    <random_number>
        <seed value="1234"/>
    </random_number>

</configuration>
--><net xmlns:xsi="http://www.w3.org/2001/XMLSchema-instance" version="1.6" junctionCornerDetail="5" junctionLinkDetail="20" limitTurnSpeed="5.50" xsi:noNamespaceSchemaLocation="http://sumo.dlr.de/xsd/net_file.xsd">

    <location netOffset="0.00,0.00" convBoundary="-986.85,-560.33,-738.32,-314.07" origBoundary="-986.85,-561.59,-738.32,-314.07" projParameter="!"/>

    <type id="highway.bridleway" priority="1" speed="2.78" allow="pedestrian" oneway="1" width="2.00"/>
    <type id="highway.bus_guideway" priority="1" speed="27.78" allow="bus" oneway="1"/>
    <type id="highway.cycleway" priority="1" speed="8.33" allow="bicycle" oneway="0" width="1.00"/>
    <type id="highway.footway" priority="1" speed="2.78" allow="pedestrian" oneway="1" width="2.00"/>
    <type id="highway.ford" priority="1" speed="2.78" allow="army" oneway="0"/>
    <type id="highway.living_street" priority="2" speed="2.78" disallow="tram rail_urban rail rail_electric rail_fast ship" oneway="0"/>
    <type id="highway.motorway" priority="14" speed="39.44" allow="private emergency authority army vip passenger hov taxi bus coach delivery truck trailer motorcycle evehicle custom1 custom2" oneway="1"/>
    <type id="highway.motorway_link" priority="9" speed="22.22" allow="private emergency authority army vip passenger hov taxi bus coach delivery truck trailer motorcycle evehicle custom1 custom2" oneway="1"/>
    <type id="highway.path" priority="1" speed="2.78" allow="pedestrian bicycle" oneway="0" width="2.00"/>
    <type id="highway.pedestrian" priority="1" speed="2.78" allow="pedestrian" oneway="1" width="2.00"/>
    <type id="highway.primary" priority="12" speed="27.78" disallow="pedestrian tram rail_urban rail rail_electric rail_fast ship" oneway="0"/>
    <type id="highway.primary_link" priority="7" speed="22.22" disallow="pedestrian tram rail_urban rail rail_electric rail_fast ship" oneway="0"/>
    <type id="highway.raceway" priority="15" speed="83.33" allow="vip" oneway="0"/>
    <type id="highway.residential" priority="3" speed="13.89" disallow="pedestrian tram rail_urban rail rail_electric rail_fast ship" oneway="0"/>
    <type id="highway.secondary" priority="11" speed="27.78" disallow="pedestrian tram rail_urban rail rail_electric rail_fast ship" oneway="0"/>
    <type id="highway.secondary_link" priority="6" speed="22.22" disallow="pedestrian tram rail_urban rail rail_electric rail_fast ship" oneway="0"/>
    <type id="highway.service" priority="1" speed="5.56" allow="pedestrian delivery bicycle" oneway="0"/>
    <type id="highway.stairs" priority="1" speed="1.39" allow="pedestrian" oneway="1" width="2.00"/>
    <type id="highway.step" priority="1" speed="1.39" allow="pedestrian" oneway="1" width="2.00"/>
    <type id="highway.steps" priority="1" speed="1.39" allow="pedestrian" oneway="1" width="2.00"/>
    <type id="highway.tertiary" priority="10" speed="22.22" disallow="pedestrian tram rail_urban rail rail_electric rail_fast ship" oneway="0"/>
    <type id="highway.tertiary_link" priority="5" speed="22.22" disallow="pedestrian tram rail_urban rail rail_electric rail_fast ship" oneway="0"/>
    <type id="highway.track" priority="1" speed="5.56" allow="pedestrian motorcycle moped bicycle" oneway="0"/>
    <type id="highway.trunk" priority="13" speed="27.78" disallow="pedestrian bicycle tram rail_urban rail rail_electric rail_fast ship" oneway="0"/>
    <type id="highway.trunk_link" priority="8" speed="22.22" disallow="pedestrian bicycle tram rail_urban rail rail_electric rail_fast ship" oneway="0"/>
    <type id="highway.unclassified" priority="4" speed="13.89" disallow="pedestrian tram rail_urban rail rail_electric rail_fast ship" oneway="0"/>
    <type id="highway.unsurfaced" priority="1" speed="8.33" disallow="tram rail_urban rail rail_electric rail_fast ship" oneway="0"/>
    <type id="railway.highspeed" priority="21" speed="69.44" allow="rail_fast" oneway="1"/>
    <type id="railway.light_rail" priority="19" speed="27.78" allow="rail_urban" oneway="1"/>
    <type id="railway.preserved" priority="16" speed="27.78" allow="rail" oneway="1"/>
    <type id="railway.rail" priority="20" speed="44.44" allow="rail" oneway="1"/>
    <type id="railway.subway" priority="18" speed="27.78" allow="rail_urban" oneway="1"/>
    <type id="railway.tram" priority="17" speed="13.89" allow="tram" oneway="1"/>

    <edge id=":13_0" function="internal">
        <lane id=":13_0_0" index="0" disallow="pedestrian tram rail_urban rail rail_electric rail_fast ship" speed="36.11" length="0.10" width="3.50" shape="-778.74,-477.12 -778.74,-477.12"/>
    </edge>
    <edge id=":31_0" function="internal">
        <lane id=":31_0_0" index="0" disallow="pedestrian tram rail_urban rail rail_electric rail_fast ship" speed="36.11" length="3.88" width="3.50" shape="-858.84,-546.56 -859.99,-542.85"/>
    </edge>
    <edge id=":32_0" function="internal">
        <lane id=":32_0_0" index="0" disallow="pedestrian tram rail_urban rail rail_electric rail_fast ship" speed="36.11" length="0.10" width="3.50" shape="-836.95,-560.33 -836.95,-560.33"/>
    </edge>
    <edge id=":47_0" function="internal">
        <lane id=":47_0_0" index="0" disallow="pedestrian tram rail_urban rail rail_electric rail_fast ship" speed="36.11" length="4.20" width="3.50" shape="-835.86,-556.37 -839.92,-557.43"/>
    </edge>
    <edge id=":49_0" function="internal">
        <lane id=":49_0_0" index="0" disallow="pedestrian tram rail_urban rail rail_electric rail_fast ship" speed="36.11" length="3.80" width="3.50" shape="-777.77,-473.32 -781.46,-474.24"/>
    </edge>
    <edge id=":50_0" function="internal">
        <lane id=":50_0_0" index="0" disallow="pedestrian tram rail_urban rail rail_electric rail_fast ship" speed="36.11" length="2.99" width="3.50" shape="-757.31,-487.91 -756.37,-490.75"/>
    </edge>
    <edge id=":57_0" function="internal">
        <lane id=":57_0_0" index="0" disallow="pedestrian tram rail_urban rail rail_electric rail_fast ship" speed="36.11" length="2.99" width="3.50" shape="-753.04,-489.68 -753.98,-486.84"/>
    </edge>
    <edge id=":58_0" function="internal">
        <lane id=":58_0_0" index="0" disallow="pedestrian tram rail_urban rail rail_electric rail_fast ship" speed="36.11" length="4.34" width="3.50" shape="-756.34,-533.38 -760.49,-534.66"/>
    </edge>
    <edge id=":6_0" function="internal">
        <lane id=":6_0_0" index="0" disallow="pedestrian tram rail_urban rail rail_electric rail_fast ship" speed="36.11" length="3.88" width="3.50" shape="-863.34,-543.85 -862.19,-547.56"/>
    </edge>
    <edge id=":79_0" function="internal">
        <lane id=":79_0_0" index="0" disallow="pedestrian tram rail_urban rail rail_electric rail_fast ship" speed="36.11" length="4.08" width="3.50" shape="-759.37,-537.98 -755.47,-536.77"/>
    </edge>
    <edge id=":80_0" function="internal">
        <lane id=":80_0_0" index="0" disallow="pedestrian tram rail_urban rail rail_electric rail_fast ship" speed="36.11" length="38.84" width="3.50" shape="-805.73,-480.96 -824.44,-486.15 -843.16,-491.34"/>
    </edge>
    <edge id=":80_1" function="internal">
        <lane id=":80_1_0" index="0" disallow="pedestrian tram rail_urban rail rail_electric rail_fast ship" speed="12.18" length="34.67" width="3.50" shape="-805.73,-480.96 -809.38,-482.19 -811.78,-483.27 -814.08,-484.61 -816.19,-486.22 -817.20,-487.19 -818.11,-488.21 -818.93,-489.32 -819.66,-490.50 -820.27,-491.75 -820.77,-493.03 -821.15,-494.35 -821.43,-495.72 -821.67,-498.36 -821.58,-501.02 -821.22,-503.62 -820.31,-507.37"/>
    </edge>
    <edge id=":80_2" function="internal">
        <lane id=":80_2_0" index="0" disallow="pedestrian tram rail_urban rail rail_electric rail_fast ship" speed="11.17" length="29.01" width="3.50" shape="-816.96,-506.37 -817.75,-503.12 -818.06,-500.91 -818.13,-498.68 -817.93,-496.46 -817.70,-495.36 -817.39,-494.29 -816.99,-493.25 -816.50,-492.25 -815.91,-491.30 -815.25,-490.40 -814.50,-489.57 -813.70,-488.79 -811.93,-487.44 -810.00,-486.31 -807.96,-485.40 -804.79,-484.34"/>
    </edge>
    <edge id=":80_3" function="internal">
        <lane id=":80_3_0" index="0" disallow="pedestrian tram rail_urban rail rail_electric rail_fast ship" speed="12.33" length="34.48" width="3.50" shape="-816.96,-506.37 -818.29,-502.62 -819.41,-500.22 -820.76,-497.93 -822.37,-495.82 -824.26,-493.96 -825.30,-493.15 -826.42,-492.42 -827.59,-491.80 -828.81,-491.28 -830.07,-490.86 -831.35,-490.54 -833.98,-490.20 -836.64,-490.21 -839.27,-490.49 -841.88,-491.01 -843.16,-491.34"/>
    </edge>
    <edge id=":80_4" function="internal">
        <lane id=":80_4_0" index="0" disallow="pedestrian tram rail_urban rail rail_electric rail_fast ship" speed="11.34" length="28.99" width="3.50" shape="-842.24,-494.72 -841.12,-494.43 -838.86,-493.98 -836.60,-493.73 -834.38,-493.73 -832.17,-494.02 -831.15,-494.28 -830.13,-494.62 -829.15,-495.04 -828.20,-495.55 -827.31,-496.13 -826.48,-496.77 -824.91,-498.33 -823.57,-500.09 -822.43,-502.03 -821.47,-504.09 -820.31,-507.37"/>
    </edge>
    <edge id=":80_5" function="internal">
        <lane id=":80_5_0" index="0" disallow="pedestrian tram rail_urban rail rail_electric rail_fast ship" speed="36.11" length="38.86" width="3.50" shape="-842.24,-494.72 -823.51,-489.53 -804.79,-484.34"/>
    </edge>
    <edge id=":81_0" function="internal">
        <lane id=":81_0_0" index="0" disallow="pedestrian tram rail_urban rail rail_electric rail_fast ship" speed="36.11" length="28.94" width="3.50" shape="-868.22,-479.83 -882.23,-483.58 -896.18,-487.31"/>
    </edge>
    <edge id=":81_1" function="internal">
        <lane id=":81_1_0" index="0" disallow="pedestrian tram rail_urban rail rail_electric rail_fast ship" speed="9.14" length="19.01" width="3.49" shape="-868.22,-479.83 -871.05,-480.75 -872.38,-481.34 -873.65,-482.06 -874.84,-482.91 -875.90,-483.91 -876.79,-485.06 -877.46,-486.36 -877.88,-487.75 -878.07,-489.20 -878.04,-490.66 -877.84,-492.11 -877.51,-493.52"/>
    </edge>
    <edge id=":81_2" function="internal">
        <lane id=":81_2_0" index="0" disallow="pedestrian tram rail_urban rail rail_electric rail_fast ship" speed="7.70" length="13.36" width="3.50" shape="-874.14,-492.57 -874.38,-491.54 -874.52,-490.51 -874.53,-489.51 -874.40,-488.56 -874.12,-487.68 -873.67,-486.86 -873.07,-486.12 -872.34,-485.46 -871.49,-484.88 -870.55,-484.37 -869.56,-483.93 -867.34,-483.22"/>
    </edge>
    <edge id=":81_3" function="internal">
        <lane id=":81_3_0" index="0" disallow="pedestrian tram rail_urban rail rail_electric rail_fast ship" speed="10.65" length="25.26" width="3.50" shape="-874.14,-492.57 -874.63,-491.23 -875.34,-489.93 -876.28,-488.76 -877.41,-487.78 -878.65,-487.01 -879.96,-486.45 -881.28,-486.06 -882.59,-485.81 -883.93,-485.67 -886.47,-485.64 -888.98,-485.85 -892.63,-486.46 -896.18,-487.31"/>
    </edge>
    <edge id=":81_4" function="internal">
        <lane id=":81_4_0" index="0" disallow="pedestrian tram rail_urban rail rail_electric rail_fast ship" speed="9.43" length="19.81" width="3.49" shape="-895.28,-490.69 -892.24,-489.95 -889.16,-489.40 -887.08,-489.17 -885.00,-489.11 -883.96,-489.16 -882.92,-489.29 -881.90,-489.50 -880.91,-489.83 -879.97,-490.29 -879.13,-490.90 -878.42,-491.66 -877.88,-492.55 -877.51,-493.52"/>
    </edge>
    <edge id=":81_5" function="internal">
        <lane id=":81_5_0" index="0" disallow="pedestrian tram rail_urban rail rail_electric rail_fast ship" speed="36.11" length="28.92" width="3.50" shape="-895.28,-490.69 -881.33,-486.96 -867.34,-483.22"/>
    </edge>
    <edge id=":82_0" function="internal">
        <lane id=":82_0_0" index="0" disallow="pedestrian tram rail_urban rail rail_electric rail_fast ship" speed="9.58" length="20.58" width="3.50" shape="-855.28,-494.71 -859.26,-495.70 -862.30,-496.27 -864.34,-496.53 -866.40,-496.65 -867.43,-496.64 -868.46,-496.57 -869.48,-496.43 -870.48,-496.19 -871.44,-495.82 -872.33,-495.30 -873.10,-494.62 -873.69,-493.77 -874.07,-492.82"/>
    </edge>
    <edge id=":82_1" function="internal">
        <lane id=":82_1_0" index="0" disallow="pedestrian tram rail_urban rail rail_electric rail_fast ship" speed="12.17" length="34.14" width="3.50" shape="-855.28,-494.70 -858.87,-495.91 -861.24,-496.99 -863.50,-498.32 -865.57,-499.92 -866.57,-500.88 -867.46,-501.90 -868.27,-502.99 -868.98,-504.16 -869.58,-505.38 -870.08,-506.65 -870.46,-507.94 -870.74,-509.29 -871.00,-511.89 -870.95,-514.51 -870.63,-517.08 -869.79,-520.76"/>
    </edge>
    <edge id=":82_2" function="internal">
        <lane id=":82_2_0" index="0" disallow="pedestrian tram rail_urban rail rail_electric rail_fast ship" speed="11.17" length="28.58" width="3.50" shape="-866.42,-519.84 -867.15,-516.63 -867.42,-514.44 -867.47,-512.24 -867.25,-510.05 -867.02,-508.98 -866.71,-507.92 -866.32,-506.90 -865.83,-505.91 -865.26,-504.97 -864.60,-504.09 -863.88,-503.26 -863.09,-502.49 -861.35,-501.15 -859.45,-500.03 -857.45,-499.12 -854.34,-498.08"/>
    </edge>
    <edge id=":82_3" function="internal">
        <lane id=":82_3_0" index="0" disallow="pedestrian tram rail_urban rail rail_electric rail_fast ship" speed="36.11" length="28.08" width="3.50" shape="-866.42,-519.84 -870.24,-506.33 -874.07,-492.82"/>
    </edge>
    <edge id=":82_4" function="internal">
        <lane id=":82_4_0" index="0" disallow="pedestrian tram rail_urban rail rail_electric rail_fast ship" speed="36.11" length="28.04" width="3.50" shape="-877.43,-493.78 -873.61,-507.28 -869.79,-520.76"/>
    </edge>
    <edge id=":82_5" function="internal">
        <lane id=":82_5_0" index="0" disallow="pedestrian tram rail_urban rail rail_electric rail_fast ship" speed="10.76" length="26.02" width="3.50" shape="-877.44,-493.78 -876.92,-495.13 -876.14,-496.42 -875.12,-497.54 -873.92,-498.42 -872.65,-499.07 -871.35,-499.53 -870.05,-499.83 -868.76,-500.01 -867.46,-500.10 -864.99,-500.06 -862.53,-499.82 -858.96,-499.20 -854.34,-498.08"/>
    </edge>
    <edge id=":83_0" function="internal">
        <lane id=":83_0_0" index="0" disallow="pedestrian tram rail_urban rail rail_electric rail_fast ship" speed="11.20" length="28.49" width="3.50" shape="-788.00,-542.59 -790.23,-543.15 -792.44,-543.53 -794.65,-543.69 -796.83,-543.61 -798.97,-543.22 -799.95,-542.92 -800.92,-542.53 -801.86,-542.06 -802.75,-541.51 -803.60,-540.88 -804.39,-540.18 -805.12,-539.44 -806.48,-537.71 -807.61,-535.82 -808.56,-533.81 -809.71,-530.58"/>
    </edge>
    <edge id=":83_1" function="internal">
        <lane id=":83_1_0" index="0" disallow="pedestrian tram rail_urban rail rail_electric rail_fast ship" speed="36.11" length="38.93" width="3.50" shape="-788.00,-542.59 -806.72,-547.98 -825.41,-553.36"/>
    </edge>
    <edge id=":83_2" function="internal">
        <lane id=":83_2_0" index="0" disallow="pedestrian tram rail_urban rail rail_electric rail_fast ship" speed="36.11" length="38.91" width="3.50" shape="-824.44,-556.72 -805.75,-551.34 -787.05,-545.95"/>
    </edge>
    <edge id=":83_3" function="internal">
        <lane id=":83_3_0" index="0" disallow="pedestrian tram rail_urban rail rail_electric rail_fast ship" speed="12.18" length="34.41" width="3.50" shape="-824.44,-556.72 -822.01,-555.94 -819.63,-554.97 -817.31,-553.78 -815.10,-552.32 -813.10,-550.59 -812.16,-549.57 -811.33,-548.49 -810.58,-547.33 -809.95,-546.12 -809.42,-544.85 -809.01,-543.55 -808.71,-542.22 -808.51,-540.86 -808.41,-538.24 -808.61,-535.62 -809.06,-533.07 -809.71,-530.58"/>
    </edge>
    <edge id=":83_4" function="internal">
        <lane id=":83_4_0" index="0" disallow="pedestrian tram rail_urban rail rail_electric rail_fast ship" speed="11.17" length="28.79" width="3.50" shape="-813.06,-531.58 -812.50,-533.74 -812.12,-535.92 -811.94,-538.12 -812.04,-540.33 -812.20,-541.43 -812.45,-542.51 -812.79,-543.56 -813.21,-544.58 -813.73,-545.56 -814.33,-546.49 -815.01,-547.36 -815.76,-548.18 -817.43,-549.63 -819.28,-550.84 -821.25,-551.85 -823.31,-552.68 -825.41,-553.36"/>
    </edge>
    <edge id=":83_5" function="internal">
        <lane id=":83_5_0" index="0" disallow="pedestrian tram rail_urban rail rail_electric rail_fast ship" speed="12.20" length="34.02" width="3.50" shape="-813.07,-531.58 -811.75,-535.29 -810.63,-537.65 -809.27,-539.89 -807.66,-541.95 -806.75,-542.89 -805.76,-543.75 -804.71,-544.53 -803.60,-545.21 -802.43,-545.80 -801.22,-546.28 -799.96,-546.66 -797.39,-547.13 -794.78,-547.23 -792.17,-547.03 -789.59,-546.59 -787.05,-545.95"/>
    </edge>
    <edge id=":84_0" function="internal">
        <lane id=":84_0_0" index="0" disallow="pedestrian tram rail_urban rail rail_electric rail_fast ship" speed="10.31" length="20.39" width="3.50" shape="-858.64,-379.63 -860.20,-379.94 -861.69,-380.18 -863.12,-380.37 -864.48,-380.50 -865.77,-380.57 -867.00,-380.58 -868.16,-380.54 -869.26,-380.43 -870.29,-380.27 -871.26,-380.04 -872.16,-379.76 -872.99,-379.42 -873.76,-379.02 -874.46,-378.56 -875.10,-378.04 -875.67,-377.47 -876.18,-376.83 -876.62,-376.13 -876.99,-375.38"/>
    </edge>
    <edge id=":84_1" function="internal">
        <lane id=":84_1_0" index="0" disallow="pedestrian tram rail_urban rail rail_electric rail_fast ship" speed="36.11" length="39.04" width="3.50" shape="-858.64,-379.63 -877.76,-383.66 -896.84,-387.69"/>
    </edge>
    <edge id=":84_2" function="internal">
        <lane id=":84_2_0" index="0" disallow="pedestrian tram rail_urban rail rail_electric rail_fast ship" speed="12.12" length="34.40" width="3.50" shape="-858.64,-379.63 -862.49,-380.65 -864.96,-381.59 -867.33,-382.77 -869.52,-384.25 -870.53,-385.10 -871.47,-386.04 -872.32,-387.05 -873.08,-388.13 -873.74,-389.28 -874.29,-390.48 -874.73,-391.73 -875.32,-394.30 -875.55,-396.94 -875.48,-399.58 -875.16,-402.21 -874.64,-404.80"/>
    </edge>
    <edge id=":84_3" function="internal">
        <lane id=":84_3_0" index="0" disallow="pedestrian tram rail_urban rail rail_electric rail_fast ship" speed="11.12" length="28.75" width="3.50" shape="-871.23,-404.01 -871.69,-401.75 -871.96,-399.49 -872.03,-397.25 -871.84,-395.06 -871.35,-392.91 -870.99,-391.94 -870.55,-390.98 -870.03,-390.07 -869.43,-389.20 -868.74,-388.40 -867.99,-387.64 -867.19,-386.97 -865.36,-385.73 -863.37,-384.74 -861.27,-383.94 -857.91,-383.05"/>
    </edge>
    <edge id=":84_4" function="internal">
        <lane id=":84_4_0" index="0" disallow="pedestrian tram rail_urban rail rail_electric rail_fast ship" speed="36.11" length="29.12" width="3.50" shape="-871.24,-404.00 -877.64,-375.59"/>
    </edge>
    <edge id=":84_5" function="internal">
        <lane id=":84_5_0" index="0" disallow="pedestrian tram rail_urban rail rail_electric rail_fast ship" speed="12.35" length="34.56" width="3.50" shape="-871.23,-404.01 -871.55,-402.77 -872.70,-399.26 -873.74,-396.94 -875.04,-394.72 -876.63,-392.66 -878.49,-390.86 -879.56,-390.04 -880.68,-389.33 -881.85,-388.71 -883.10,-388.18 -885.57,-387.45 -888.12,-387.05 -890.67,-386.96 -893.19,-387.11 -896.84,-387.69"/>
    </edge>
    <edge id=":84_6" function="internal">
        <lane id=":84_6_0" index="0" disallow="pedestrian tram rail_urban rail rail_electric rail_fast ship" speed="11.36" length="29.08" width="3.50" shape="-896.13,-391.12 -892.95,-390.61 -890.80,-390.48 -888.64,-390.56 -886.52,-390.88 -884.45,-391.50 -883.46,-391.92 -882.51,-392.42 -881.60,-393.00 -880.74,-393.65 -879.19,-395.15 -877.88,-396.86 -876.79,-398.72 -875.91,-400.68 -874.91,-403.76 -874.64,-404.80"/>
    </edge>
    <edge id=":84_7" function="internal">
        <lane id=":84_7_0" index="0" disallow="pedestrian tram rail_urban rail rail_electric rail_fast ship" speed="36.11" length="39.06" width="3.50" shape="-896.13,-391.12 -877.04,-387.09 -857.91,-383.05"/>
    </edge>
    <edge id=":84_8" function="internal">
        <lane id=":84_8_0" index="0" disallow="pedestrian tram rail_urban rail rail_electric rail_fast ship" speed="14.06" length="25.38" width="3.50" shape="-896.12,-391.11 -895.17,-390.87 -894.24,-390.55 -893.32,-390.14 -892.42,-389.65 -891.52,-389.08 -890.65,-388.42 -889.78,-387.68 -888.93,-386.86 -888.09,-385.96 -887.26,-384.97 -886.45,-383.91 -885.65,-382.76 -884.86,-381.52 -884.09,-380.21 -883.33,-378.81 -882.58,-377.33 -881.84,-375.76 -881.12,-374.11 -880.41,-372.38"/>
    </edge>
    <edge id=":84_9" function="internal">
        <lane id=":84_9_0" index="0" disallow="pedestrian tram rail_urban rail rail_electric rail_fast ship" speed="11.30" length="29.12" width="3.50" shape="-882.99,-367.31 -881.86,-373.44 -881.86,-375.62 -882.01,-376.70 -882.26,-377.76 -882.62,-378.79 -883.09,-379.77 -883.66,-380.70 -884.33,-381.56 -885.08,-382.36 -885.89,-383.09 -886.76,-383.75 -888.62,-384.89 -890.60,-385.81 -892.64,-386.57 -895.80,-387.45 -896.84,-387.69"/>
    </edge>
    <edge id=":84_10" function="internal">
        <lane id=":84_10_0" index="0" disallow="pedestrian tram rail_urban rail rail_electric rail_fast ship" speed="36.11" length="38.41" width="3.50" shape="-882.99,-367.31 -876.99,-394.66 -874.64,-404.80"/>
    </edge>
    <edge id=":84_11" function="internal">
        <lane id=":84_11_0" index="0" disallow="pedestrian tram rail_urban rail rail_electric rail_fast ship" speed="12.27" length="34.83" width="3.50" shape="-882.99,-367.31 -881.47,-373.86 -880.43,-376.32 -879.77,-377.48 -879.00,-378.58 -878.13,-379.59 -877.15,-380.51 -876.09,-381.32 -874.95,-382.02 -873.75,-382.60 -872.49,-383.07 -869.89,-383.70 -867.23,-383.97 -864.56,-383.96 -860.56,-383.54 -857.91,-383.05"/>
    </edge>
    <edge id=":86_0" function="internal">
        <lane id=":86_0_0" index="0" disallow="pedestrian tram rail_urban rail rail_electric rail_fast ship" speed="11.05" length="28.67" width="3.50" shape="-837.27,-471.51 -840.50,-472.21 -842.69,-472.45 -844.90,-472.45 -847.09,-472.17 -848.16,-471.90 -849.20,-471.55 -850.21,-471.11 -851.18,-470.57 -852.09,-469.95 -852.94,-469.25 -853.73,-468.47 -854.45,-467.64 -855.70,-465.83 -856.72,-463.87 -857.54,-461.82 -858.45,-458.64"/>
    </edge>
    <edge id=":86_1" function="internal">
        <lane id=":86_1_0" index="0" disallow="pedestrian tram rail_urban rail rail_electric rail_fast ship" speed="36.11" length="31.88" width="3.50" shape="-837.27,-471.51 -852.65,-475.65 -868.06,-479.79"/>
    </edge>
    <edge id=":86_2" function="internal">
        <lane id=":86_2_0" index="0" disallow="pedestrian tram rail_urban rail rail_electric rail_fast ship" speed="36.11" length="31.88" width="3.50" shape="-867.17,-483.17 -851.74,-479.03 -836.38,-474.90"/>
    </edge>
    <edge id=":86_3" function="internal">
        <lane id=":86_3_0" index="0" disallow="pedestrian tram rail_urban rail rail_electric rail_fast ship" speed="11.42" length="29.33" width="3.50" shape="-867.17,-483.17 -865.86,-482.77 -864.62,-482.28 -863.44,-481.67 -862.32,-480.94 -861.30,-480.09 -860.38,-479.13 -859.58,-478.07 -858.91,-476.92 -858.35,-475.71 -857.92,-474.45 -857.60,-473.16 -857.23,-470.52 -857.16,-467.86 -857.48,-463.88 -858.16,-459.94 -858.45,-458.64"/>
    </edge>
    <edge id=":86_4" function="internal">
        <lane id=":86_4_0" index="0" disallow="pedestrian tram rail_urban rail rail_electric rail_fast ship" speed="10.35" length="23.86" width="3.50" shape="-861.86,-459.44 -861.61,-460.57 -861.00,-464.02 -860.69,-467.47 -860.71,-469.70 -860.97,-471.92 -861.19,-472.94 -861.50,-473.95 -861.90,-474.91 -862.37,-475.80 -862.94,-476.62 -863.60,-477.36 -864.34,-478.02 -865.16,-478.59 -866.06,-479.07 -867.02,-479.46 -868.06,-479.79"/>
    </edge>
    <edge id=":86_5" function="internal">
        <lane id=":86_5_0" index="0" disallow="pedestrian tram rail_urban rail rail_electric rail_fast ship" speed="12.06" length="34.36" width="3.50" shape="-861.86,-459.44 -860.80,-463.11 -859.84,-465.53 -858.62,-467.86 -857.12,-470.02 -856.22,-471.07 -855.24,-472.02 -854.19,-472.89 -853.05,-473.66 -851.84,-474.33 -850.59,-474.88 -849.29,-475.32 -847.95,-475.64 -845.33,-475.98 -842.69,-475.98 -840.09,-475.69 -836.38,-474.90"/>
    </edge>
    <edge id=":87_0" function="internal">
        <lane id=":87_0_0" index="0" disallow="pedestrian tram rail_urban rail rail_electric rail_fast ship" speed="11.06" length="28.29" width="3.50" shape="-900.80,-488.56 -903.99,-489.24 -906.15,-489.48 -908.33,-489.50 -910.49,-489.24 -911.55,-489.00 -912.58,-488.67 -913.59,-488.25 -914.55,-487.75 -915.47,-487.16 -916.33,-486.49 -917.13,-485.75 -918.54,-484.10 -919.71,-482.26 -920.66,-480.30 -921.42,-478.27 -922.02,-476.17"/>
    </edge>
    <edge id=":87_1" function="internal">
        <lane id=":87_1_0" index="0" disallow="pedestrian tram rail_urban rail rail_electric rail_fast ship" speed="36.11" length="38.30" width="3.50" shape="-900.80,-488.56 -909.77,-491.05 -923.63,-495.24 -937.40,-499.81"/>
    </edge>
    <edge id=":87_2" function="internal">
        <lane id=":87_2_0" index="0" disallow="pedestrian tram rail_urban rail rail_electric rail_fast ship" speed="36.11" length="38.03" width="3.50" shape="-936.26,-503.12 -922.57,-498.58 -908.80,-494.42 -899.92,-491.94"/>
    </edge>
    <edge id=":87_3" function="internal">
        <lane id=":87_3_0" index="0" disallow="pedestrian tram rail_urban rail rail_electric rail_fast ship" speed="12.61" length="34.31" width="3.50" shape="-936.26,-503.12 -932.70,-501.68 -930.46,-500.49 -928.34,-499.09 -926.39,-497.46 -924.68,-495.58 -923.27,-493.48 -922.18,-491.18 -921.45,-488.75 -921.05,-486.24 -920.95,-483.70 -921.11,-481.17 -921.73,-477.41 -922.02,-476.17"/>
    </edge>
    <edge id=":87_4" function="internal">
        <lane id=":87_4_0" index="0" disallow="pedestrian tram rail_urban rail rail_electric rail_fast ship" speed="11.63" length="29.05" width="3.50" shape="-925.41,-477.03 -925.16,-478.09 -924.61,-481.41 -924.48,-483.57 -924.56,-485.72 -924.89,-487.81 -925.49,-489.82 -926.37,-491.70 -927.53,-493.43 -928.95,-494.98 -930.57,-496.35 -932.37,-497.54 -934.29,-498.55 -937.40,-499.81"/>
    </edge>
    <edge id=":87_5" function="internal">
        <lane id=":87_5_0" index="0" disallow="pedestrian tram rail_urban rail rail_electric rail_fast ship" speed="12.07" length="33.90" width="3.50" shape="-925.42,-477.03 -924.71,-479.46 -923.82,-481.84 -922.69,-484.16 -921.29,-486.37 -919.59,-488.37 -918.58,-489.30 -917.51,-490.13 -916.37,-490.86 -915.17,-491.49 -913.92,-492.01 -912.65,-492.42 -911.31,-492.72 -908.73,-493.03 -906.13,-493.01 -903.58,-492.72 -899.92,-491.94"/>
    </edge>
    <edge id=":88_0" function="internal">
        <lane id=":88_0_0" index="0" disallow="pedestrian tram rail_urban rail rail_electric rail_fast ship" speed="12.06" length="34.49" width="3.50" shape="-924.51,-393.52 -928.39,-394.55 -930.86,-395.50 -933.23,-396.69 -935.41,-398.19 -936.42,-399.05 -937.34,-400.00 -938.18,-401.03 -938.92,-402.12 -939.56,-403.29 -940.09,-404.50 -940.51,-405.76 -940.82,-407.04 -941.17,-409.67 -941.18,-412.32 -940.92,-414.96 -940.14,-418.86"/>
    </edge>
    <edge id=":88_1" function="internal">
        <lane id=":88_1_0" index="0" disallow="pedestrian tram rail_urban rail rail_electric rail_fast ship" speed="11.05" length="28.77" width="3.50" shape="-936.74,-418.02 -937.43,-414.60 -937.65,-412.36 -937.64,-410.14 -937.36,-407.94 -937.11,-406.93 -936.77,-405.91 -936.35,-404.95 -935.84,-404.02 -935.26,-403.15 -934.59,-402.33 -933.85,-401.57 -933.06,-400.89 -931.24,-399.64 -929.26,-398.64 -927.16,-397.84 -923.79,-396.95"/>
    </edge>
    <edge id=":88_2" function="internal">
        <lane id=":88_2_0" index="0" disallow="pedestrian tram rail_urban rail rail_electric rail_fast ship" speed="36.11" length="38.41" width="3.50" shape="-936.74,-418.02 -937.78,-413.97 -942.37,-396.96 -947.04,-381.02"/>
    </edge>
    <edge id=":88_3" function="internal">
        <lane id=":88_3_0" index="0" disallow="pedestrian tram rail_urban rail rail_electric rail_fast ship" speed="36.11" length="38.22" width="3.50" shape="-950.39,-382.04 -945.74,-397.91 -941.17,-414.85 -940.14,-418.86"/>
    </edge>
    <edge id=":89_0" function="internal">
        <lane id=":89_0_0" index="0" disallow="pedestrian tram rail_urban rail rail_electric rail_fast ship" speed="8.99" length="16.93" width="3.50" shape="-739.19,-511.81 -744.32,-512.50 -745.02,-511.82 -745.59,-511.02 -746.08,-510.17 -746.51,-509.30 -747.29,-507.50 -747.99,-505.66 -748.93,-502.88 -749.22,-501.95"/>
    </edge>
    <edge id=":89_1" function="internal">