<routes>
	<vehicle depart="0.1" departLane="0" departPos="60.071433805067436" departSpeed="0.31615717" id="319" type="passenger">
		<route edges="66673 66684"/>
	</vehicle>
	<vehicle depart="0.1" departLane="0" departPos="65.50386048989188" departSpeed="2.4097414" id="320" type="passenger">
		<route edges="66673 66684"/>
	</vehicle>
	<vehicle depart="0.1" departLane="0" departPos="46.16224394565849" departSpeed="1.2301429" id="323" type="passenger">
		<route edges="66673 66684"/>
	</vehicle>
	<vehicle depart="0.1" departLane="0" departPos="24.150568165749938" departSpeed="0.4444267" id="327" type="passenger">
		<route edges="66673 66684"/>
	</vehicle>
	<vehicle depart="0.1" departLane="0" departPos="32.803053494352866" departSpeed="6.0125499" id="335" type="passenger">
		<route edges=":30_5 66688 66667"/>
	</vehicle>
	<vehicle depart="0.1" departLane="0" departPos="12.341940011441023" departSpeed="7.3480126" id="338" type="passenger">
		<route edges=":30_4 66674"/>
	</vehicle>
	<vehicle depart="0.1" departLane="0" departPos="18.715122584763257" departSpeed="6.2193657" id="342" type="passenger">
		<route edges="66685 66674"/>
	</vehicle>
	<vehicle depart="0.1" departLane="0" departPos="4.970024116800884" departSpeed="4.958311" id="343" type="passenger">
		<route edges="66685 66688"/>
	</vehicle>
	<vehicle depart="0.1" departLane="0" departPos="14.012906410696447" departSpeed="1.3012164" id="331" type="motorcycle">
		<route edges="66673 66684"/>
	</vehicle>
</routes>
