<!-- generated on Tue Feb  9 22:16:44 2021 by Eclipse SUMO netconvert Version 1.8.0
<configuration xmlns:xsi="http://www.w3.org/2001/XMLSchema-instance" xsi:noNamespaceSchemaLocation="http://sumo.dlr.de/xsd/netconvertConfiguration.xsd">

    <input>
        <node-files value="./converted_scenarios/scenario-factory/ESP_Toledo-11_4_I-1-1/ESP_Toledo-11_4_I-1-1.nod.xml"/>
        <edge-files value="./converted_scenarios/scenario-factory/ESP_Toledo-11_4_I-1-1/ESP_Toledo-11_4_I-1-1.edg.xml"/>
        <connection-files value="./converted_scenarios/scenario-factory/ESP_Toledo-11_4_I-1-1/ESP_Toledo-11_4_I-1-1.con.xml"/>
        <tllogic-files value="./converted_scenarios/scenario-factory/ESP_Toledo-11_4_I-1-1/ESP_Toledo-11_4_I-1-1.tll.xml"/>
        <type-files value="/home/zen/commonroad-interactive-benchmarks/install/commonroad-map-tool/crmapconverter/sumo_map/templates/DEU.typ.xml"/>
    </input>

    <output>
        <output-file value="./converted_scenarios/scenario-factory/ESP_Toledo-11_4_I-1-1/ESP_Toledo-11_4_I-1-1.net.xml"/>
    </output>

    <processing>
        <geometry.remove.keep-edges.explicit value="true"/>
        <geometry.avoid-overlap value="true"/>
        <offset.disable-normalization value="true"/>
    </processing>

    <junctions>
        <no-turnarounds value="true"/>
        <junctions.internal-link-detail value="20"/>
    </junctions>

    <report>
        <aggregate-warnings value="5"/>
    </report>

    <random_number>
        <seed value="1234"/>
    </random_number>

</configuration>
--><net xmlns:xsi="http://www.w3.org/2001/XMLSchema-instance" version="1.6" junctionCornerDetail="5" junctionLinkDetail="20" limitTurnSpeed="5.50" xsi:noNamespaceSchemaLocation="http://sumo.dlr.de/xsd/net_file.xsd">

    <location netOffset="0.00,0.00" convBoundary="0.71,-111.73,163.43,56.18" origBoundary="0.71,-111.73,163.43,56.18" projParameter="!"/>

    <type id="highway.bridleway" priority="1" speed="2.78" allow="pedestrian" oneway="1" width="2.00"/>
    <type id="highway.bus_guideway" priority="1" speed="27.78" allow="bus" oneway="1"/>
    <type id="highway.cycleway" priority="1" speed="8.33" allow="bicycle" oneway="0" width="1.00"/>
    <type id="highway.footway" priority="1" speed="2.78" allow="pedestrian" oneway="1" width="2.00"/>
    <type id="highway.ford" priority="1" speed="2.78" allow="army" oneway="0"/>
    <type id="highway.living_street" priority="2" speed="2.78" disallow="tram rail_urban rail rail_electric rail_fast ship" oneway="0"/>
    <type id="highway.motorway" priority="14" speed="39.44" allow="private emergency authority army vip passenger hov taxi bus coach delivery truck trailer motorcycle evehicle custom1 custom2" oneway="1"/>
    <type id="highway.motorway_link" priority="9" speed="22.22" allow="private emergency authority army vip passenger hov taxi bus coach delivery truck trailer motorcycle evehicle custom1 custom2" oneway="1"/>
    <type id="highway.path" priority="1" speed="2.78" allow="pedestrian bicycle" oneway="0" width="2.00"/>
    <type id="highway.pedestrian" priority="1" speed="2.78" allow="pedestrian" oneway="1" width="2.00"/>
    <type id="highway.primary" priority="12" speed="27.78" disallow="pedestrian tram rail_urban rail rail_electric rail_fast ship" oneway="0"/>
    <type id="highway.primary_link" priority="7" speed="22.22" disallow="pedestrian tram rail_urban rail rail_electric rail_fast ship" oneway="0"/>
    <type id="highway.raceway" priority="15" speed="83.33" allow="vip" oneway="0"/>
    <type id="highway.residential" priority="3" speed="13.89" disallow="pedestrian tram rail_urban rail rail_electric rail_fast ship" oneway="0"/>
    <type id="highway.secondary" priority="11" speed="27.78" disallow="pedestrian tram rail_urban rail rail_electric rail_fast ship" oneway="0"/>
    <type id="highway.secondary_link" priority="6" speed="22.22" disallow="pedestrian tram rail_urban rail rail_electric rail_fast ship" oneway="0"/>
    <type id="highway.service" priority="1" speed="5.56" allow="pedestrian delivery bicycle" oneway="0"/>
    <type id="highway.stairs" priority="1" speed="1.39" allow="pedestrian" oneway="1" width="2.00"/>
    <type id="highway.step" priority="1" speed="1.39" allow="pedestrian" oneway="1" width="2.00"/>
    <type id="highway.steps" priority="1" speed="1.39" allow="pedestrian" oneway="1" width="2.00"/>
    <type id="highway.tertiary" priority="10" speed="22.22" disallow="pedestrian tram rail_urban rail rail_electric rail_fast ship" oneway="0"/>
    <type id="highway.tertiary_link" priority="5" speed="22.22" disallow="pedestrian tram rail_urban rail rail_electric rail_fast ship" oneway="0"/>
    <type id="highway.track" priority="1" speed="5.56" allow="pedestrian motorcycle moped bicycle" oneway="0"/>
    <type id="highway.trunk" priority="13" speed="27.78" disallow="pedestrian bicycle tram rail_urban rail rail_electric rail_fast ship" oneway="0"/>
    <type id="highway.trunk_link" priority="8" speed="22.22" disallow="pedestrian bicycle tram rail_urban rail rail_electric rail_fast ship" oneway="0"/>
    <type id="highway.unclassified" priority="4" speed="13.89" disallow="pedestrian tram rail_urban rail rail_electric rail_fast ship" oneway="0"/>
    <type id="highway.unsurfaced" priority="1" speed="8.33" disallow="tram rail_urban rail rail_electric rail_fast ship" oneway="0"/>
    <type id="railway.highspeed" priority="21" speed="69.44" allow="rail_fast" oneway="1"/>
    <type id="railway.light_rail" priority="19" speed="27.78" allow="rail_urban" oneway="1"/>
    <type id="railway.preserved" priority="16" speed="27.78" allow="rail" oneway="1"/>
    <type id="railway.rail" priority="20" speed="44.44" allow="rail" oneway="1"/>
    <type id="railway.subway" priority="18" speed="27.78" allow="rail_urban" oneway="1"/>
    <type id="railway.tram" priority="17" speed="13.89" allow="tram" oneway="1"/>

    <edge id=":29_0" function="internal">
        <lane id=":29_0_0" index="0" disallow="pedestrian tram rail_urban rail rail_electric rail_fast ship" speed="36.11" length="33.33" width="3.50" shape="89.40,15.51 77.14,4.22 64.87,-7.06"/>
    </edge>
    <edge id=":29_1" function="internal">
        <lane id=":29_1_0" index="0" disallow="pedestrian tram rail_urban rail rail_electric rail_fast ship" speed="11.43" length="30.14" width="3.50" shape="89.40,15.51 88.46,14.57 86.81,12.58 86.07,11.42 85.45,10.20 84.95,8.92 84.60,7.58 84.39,6.21 84.34,4.83 84.43,3.47 84.64,2.14 84.97,0.85 85.40,-0.43 86.45,-2.76 87.74,-4.97 89.93,-7.99 92.37,-10.80"/>
    </edge>
    <edge id=":29_2" function="internal">
        <lane id=":29_2_0" index="0" disallow="pedestrian tram rail_urban rail rail_electric rail_fast ship" speed="10.34" length="24.53" width="3.50" shape="94.92,-8.40 92.81,-5.99 90.91,-3.41 89.81,-1.58 88.90,0.35 88.54,1.35 88.25,2.38 88.04,3.42 87.94,4.48 87.94,5.55 88.06,6.61 88.30,7.65 88.65,8.66 89.12,9.62 89.67,10.53 91.02,12.18 91.77,12.93"/>
    </edge>
    <edge id=":29_3" function="internal">
        <lane id=":29_3_0" index="0" disallow="pedestrian tram rail_urban rail rail_electric rail_fast ship" speed="12.28" length="34.43" width="3.50" shape="94.92,-8.40 92.06,-5.64 89.98,-4.00 87.74,-2.58 85.35,-1.44 84.11,-1.00 82.83,-0.65 81.52,-0.42 80.21,-0.29 78.88,-0.28 77.56,-0.39 76.25,-0.61 74.97,-0.93 72.49,-1.84 70.14,-3.07 67.93,-4.53 64.87,-7.06"/>
    </edge>
    <edge id=":29_4" function="internal">
        <lane id=":29_4_0" index="0" disallow="pedestrian tram rail_urban rail rail_electric rail_fast ship" speed="11.29" length="28.92" width="3.50" shape="67.21,-9.66 69.91,-7.43 71.78,-6.19 73.76,-5.16 75.84,-4.39 76.86,-4.14 77.92,-3.97 78.98,-3.88 80.05,-3.89 81.11,-3.99 82.16,-4.19 83.20,-4.47 84.19,-4.82 86.21,-5.78 88.09,-6.98 89.87,-8.38 92.37,-10.80"/>
    </edge>
    <edge id=":29_5" function="internal">
        <lane id=":29_5_0" index="0" disallow="pedestrian tram rail_urban rail rail_electric rail_fast ship" speed="36.11" length="33.37" width="3.50" shape="67.21,-9.66 79.51,1.65 91.77,12.93"/>
    </edge>
    <edge id=":30_0" function="internal">
        <lane id=":30_0_0" index="0" disallow="pedestrian tram rail_urban rail rail_electric rail_fast ship" speed="32.31" length="33.74" width="3.50" shape="48.47,-22.15 44.60,-25.48 40.51,-28.56 36.22,-31.35 31.75,-33.85 27.12,-36.03 22.36,-37.90 19.47,-38.87"/>
    </edge>
    <edge id=":30_1" function="internal">
        <lane id=":30_1_0" index="0" disallow="pedestrian tram rail_urban rail rail_electric rail_fast ship" speed="12.99" length="32.26" width="3.50" shape="48.47,-22.15 45.94,-24.74 44.40,-26.68 43.04,-28.76 41.91,-31.00 41.05,-33.37 40.51,-35.85 40.31,-38.37 40.43,-40.89 40.85,-43.36 41.52,-45.75 42.41,-48.05 44.03,-51.27"/>
    </edge>
    <edge id=":30_2" function="internal">
        <lane id=":30_2_0" index="0" disallow="pedestrian tram rail_urban rail rail_electric rail_fast ship" speed="12.03" length="27.51" width="3.50" shape="47.07,-49.54 45.66,-46.72 44.89,-44.74 44.31,-42.70 43.95,-40.61 43.85,-38.50 44.02,-36.38 44.47,-34.31 45.19,-32.32 46.15,-30.42 47.31,-28.65 48.63,-26.99 50.83,-24.73"/>
    </edge>
    <edge id=":30_3" function="internal">
        <lane id=":30_3_0" index="0" disallow="pedestrian tram rail_urban rail rail_electric rail_fast ship" speed="12.95" length="32.46" width="3.50" shape="47.07,-49.54 45.10,-46.49 43.54,-44.54 41.80,-42.74 39.85,-41.14 37.70,-39.78 35.39,-38.71 32.95,-37.97 30.44,-37.55 27.93,-37.43 25.44,-37.59 22.98,-37.97 19.47,-38.87"/>
    </edge>
    <edge id=":30_4" function="internal">
        <lane id=":30_4_0" index="0" disallow="pedestrian tram rail_urban rail rail_electric rail_fast ship" speed="11.99" length="27.69" width="3.50" shape="20.50,-42.21 23.59,-41.42 25.70,-41.09 27.83,-40.96 29.96,-41.05 32.06,-41.40 34.10,-42.02 36.04,-42.92 37.84,-44.06 39.49,-45.41 40.98,-46.94 42.31,-48.61 44.03,-51.27"/>
    </edge>
    <edge id=":30_5" function="internal">
        <lane id=":30_5_0" index="0" disallow="pedestrian tram rail_urban rail rail_electric rail_fast ship" speed="33.06" length="35.29" width="3.50" shape="20.50,-42.21 23.54,-41.20 28.51,-39.24 33.35,-36.96 38.03,-34.35 42.52,-31.42 46.80,-28.21 50.83,-24.73"/>
    </edge>
    <edge id=":31_0" function="internal">
        <lane id=":31_0_0" index="0" disallow="pedestrian tram rail_urban rail rail_electric rail_fast ship" speed="36.11" length="33.77" width="3.50" shape="114.26,38.79 110.55,35.27 89.62,15.70"/>
    </edge>
    <edge id=":31_1" function="internal">
        <lane id=":31_1_0" index="0" disallow="pedestrian tram rail_urban rail rail_electric rail_fast ship" speed="12.13" length="34.09" width="3.50" shape="114.26,38.79 111.65,36.03 110.07,33.97 108.70,31.74 107.63,29.34 107.21,28.04 106.90,26.72 106.71,25.37 106.63,24.01 106.68,22.65 106.85,21.31 107.13,19.98 107.52,18.67 108.52,16.26 109.81,13.99 111.31,11.88 113.78,9.05"/>
    </edge>
    <edge id=":31_2" function="internal">
        <lane id=":31_2_0" index="0" disallow="pedestrian tram rail_urban rail rail_electric rail_fast ship" speed="11.12" length="28.49" width="3.50" shape="116.31,11.47 114.16,13.93 112.88,15.72 111.80,17.62 110.96,19.65 110.65,20.70 110.42,21.77 110.28,22.86 110.24,23.96 110.30,25.05 110.46,26.14 110.70,27.21 111.04,28.25 111.93,30.25 113.07,32.12 114.41,33.86 116.67,36.25"/>
    </edge>
    <edge id=":31_3" function="internal">
        <lane id=":31_3_0" index="0" disallow="pedestrian tram rail_urban rail rail_electric rail_fast ship" speed="11.69" length="30.58" width="3.50" shape="116.31,11.47 114.51,13.23 111.61,15.69 109.48,17.17 107.19,18.45 104.75,19.44 103.42,19.82 102.07,20.07 100.69,20.20 99.30,20.18 97.91,20.02 96.55,19.72 95.24,19.29 93.98,18.74 92.78,18.09 91.63,17.34 89.62,15.70"/>
    </edge>
    <edge id=":31_4" function="internal">
        <lane id=":31_4_0" index="0" disallow="pedestrian tram rail_urban rail rail_electric rail_fast ship" speed="10.61" length="25.13" width="3.50" shape="91.96,13.10 93.66,14.48 94.58,15.07 95.55,15.58 96.56,16.00 97.61,16.32 98.68,16.53 99.77,16.62 100.86,16.60 101.95,16.47 103.02,16.24 104.07,15.93 106.08,15.06 107.97,13.96 109.75,12.69 112.24,10.56 113.78,9.05"/>
    </edge>
    <edge id=":31_5" function="internal">
        <lane id=":31_5_0" index="0" disallow="pedestrian tram rail_urban rail rail_electric rail_fast ship" speed="36.11" length="33.86" width="3.50" shape="91.96,13.10 112.95,32.72 116.67,36.25"/>
    </edge>

    <edge id="66667" from="29" to="5" priority="3" type="highway.residential" spreadType="center" length="55.00" shape="82.15,-2.45 130.24,-50.68">
        <lane id="66667_0" index="0" disallow="pedestrian tram rail_urban rail rail_electric rail_fast ship" speed="36.11" length="55.00" width="3.50" customShape="1" shape="92.37,-10.80 110.02,-29.52 130.24,-50.68"/>
    </edge>
    <edge id="66668" from="17" to="29" priority="3" type="highway.residential" spreadType="center" length="54.97" shape="132.77,-48.26 84.63,0.02">
        <lane id="66668_0" index="0" disallow="pedestrian tram rail_urban rail rail_electric rail_fast ship" speed="36.11" length="54.97" width="3.50" customShape="1" shape="132.77,-48.26 112.56,-27.12 94.92,-8.40"/>
    </edge>
    <edge id="66673" from="27" to="30" priority="3" type="highway.residential" spreadType="center" length="69.99" shape="82.32,-109.99 39.89,-37.22">
        <lane id="66673_0" index="0" disallow="pedestrian tram rail_urban rail rail_electric rail_fast ship" speed="36.11" length="69.99" width="3.50" customShape="1" shape="82.32,-109.99 76.22,-100.23 67.57,-85.62 47.07,-49.53"/>
    </edge>
    <edge id="66674" from="30" to="25" priority="3" type="highway.residential" spreadType="center" length="70.00" shape="36.87,-38.98 79.29,-111.73">
        <lane id="66674_0" index="0" disallow="pedestrian tram rail_urban rail rail_electric rail_fast ship" speed="36.11" length="70.00" width="3.50" customShape="1" shape="44.03,-51.27 64.70,-87.65 73.45,-102.41 79.29,-111.73"/>
    </edge>
    <edge id="66684" from="30" to="23" priority="3" type="highway.residential" spreadType="center" length="19.66" shape="38.09,-36.40 0.71,-44.74">
        <lane id="66684_0" index="0" disallow="pedestrian tram rail_urban rail rail_electric rail_fast ship" speed="36.11" length="19.66" width="3.50" customShape="1" shape="19.47,-38.87 10.08,-41.81 0.71,-44.74"/>
    </edge>
    <edge id="66685" from="28" to="30" priority="3" type="highway.residential" spreadType="center" length="19.66" shape="1.76,-48.08 38.85,-39.82">
        <lane id="66685_0" index="0" disallow="pedestrian tram rail_urban rail rail_electric rail_fast ship" speed="36.11" length="19.66" width="3.50" customShape="1" shape="1.76,-48.08 11.12,-45.15 20.52,-42.21"/>
    </edge>
    <edge id="66687" from="29" to="30" priority="3" type="highway.residential" spreadType="center" length="22.30" shape="82.32,0.11 37.25,-36.81">
        <lane id="66687_0" index="0" disallow="pedestrian tram rail_urban rail rail_electric rail_fast ship" speed="36.11" length="22.30" width="3.50" customShape="1" shape="64.87,-7.06 56.68,-14.60 48.46,-22.16"/>
    </edge>
    <edge id="66688" from="30" to="29" priority="3" type="highway.residential" spreadType="center" length="22.29" shape="39.46,-39.51 84.53,-2.60">
        <lane id="66688_0" index="0" disallow="pedestrian tram rail_urban rail rail_electric rail_fast ship" speed="36.11" length="22.29" width="3.50" customShape="1" shape="50.83,-24.73 59.05,-17.18 67.24,-9.64"/>
    </edge>
    <edge id="66690" from="31" to="29" priority="3" type="highway.residential" spreadType="center" length="0.30" shape="105.98,22.07 82.23,0.03">
        <lane id="66690_0" index="0" disallow="pedestrian tram rail_urban rail rail_electric rail_fast ship" speed="36.11" length="0.30" width="3.50" customShape="1" shape="89.62,15.70 89.50,15.59 89.39,15.50"/>
    </edge>
    <edge id="66691" from="29" to="31" priority="3" type="highway.residential" spreadType="center" length="0.27" shape="84.61,-2.53 108.35,19.51">
        <lane id="66691_0" index="0" disallow="pedestrian tram rail_urban rail rail_electric rail_fast ship" speed="36.11" length="0.27" width="3.50" customShape="1" shape="91.77,12.93 91.87,13.02 91.97,13.11"/>
    </edge>
    <edge id="66693" from="22" to="31" priority="3" type="highway.residential" spreadType="center" length="25.29" shape="132.58,56.18 105.67,21.74">
        <lane id="66693_0" index="0" disallow="pedestrian tram rail_urban rail rail_electric rail_fast ship" speed="36.11" length="25.29" width="3.50" customShape="1" shape="132.58,56.18 123.42,47.49 114.24,38.77"/>
    </edge>
    <edge id="66694" from="31" to="16" priority="3" type="highway.residential" spreadType="center" length="25.26" shape="108.43,19.59 134.99,53.64">
        <lane id="66694_0" index="0" disallow="pedestrian tram rail_urban rail rail_electric rail_fast ship" speed="36.11" length="25.26" width="3.50" customShape="1" shape="116.67,36.25 125.83,44.95 134.99,53.64"/>
    </edge>
    <edge id="66702" from="31" to="15" priority="3" type="highway.residential" spreadType="center" length="67.81" shape="105.79,19.56 160.91,-39.70">
        <lane id="66702_0" index="0" disallow="pedestrian tram rail_urban rail rail_electric rail_fast ship" speed="36.11" length="67.81" width="3.50" customShape="1" shape="113.78,9.05 137.36,-15.34 160.91,-39.70"/>
    </edge>
    <edge id="66703" from="18" to="31" priority="3" type="highway.residential" spreadType="center" length="67.81" shape="163.43,-37.27 108.35,21.94">
        <lane id="66703_0" index="0" disallow="pedestrian tram rail_urban rail rail_electric rail_fast ship" speed="36.11" length="67.81" width="3.50" customShape="1" shape="163.43,-37.27 139.87,-12.91 116.30,11.48"/>
    </edge>

    <junction id="15" type="dead_end" x="160.91" y="-39.70" incLanes="66702_0" intLanes="" shape="159.65,-40.92 162.17,-38.49" rightOfWay="edgePriority"/>
    <junction id="16" type="dead_end" x="134.99" y="53.64" incLanes="66694_0" intLanes="" shape="136.19,52.37 133.78,54.91" rightOfWay="edgePriority"/>
    <junction id="17" type="dead_end" x="132.77" y="-48.26" incLanes="" intLanes="" shape="131.51,-49.47 134.04,-47.05" rightOfWay="edgePriority"/>
    <junction id="18" type="dead_end" x="163.43" y="-37.27" incLanes="" intLanes="" shape="162.17,-38.49 164.68,-36.05" rightOfWay="edgePriority"/>
    <junction id="22" type="dead_end" x="132.58" y="56.18" incLanes="" intLanes="" shape="133.78,54.91 131.37,57.45" rightOfWay="edgePriority"/>
    <junction id="23" type="dead_end" x="0.71" y="-44.74" incLanes="66684_0" intLanes="" shape="0.19,-43.07 1.24,-46.41" rightOfWay="edgePriority"/>
    <junction id="25" type="dead_end" x="79.29" y="-111.73" incLanes="66674_0" intLanes="" shape="77.80,-112.66 80.77,-110.80" rightOfWay="edgePriority"/>
    <junction id="27" type="dead_end" x="82.32" y="-109.99" incLanes="" intLanes="" shape="80.84,-110.92 83.81,-109.07" rightOfWay="edgePriority"/>
    <junction id="28" type="dead_end" x="1.76" y="-48.08" incLanes="" intLanes="" shape="1.24,-46.41 2.28,-49.75" rightOfWay="edgePriority"/>
    <junction id="29" type="priority" x="83.42" y="-1.25" incLanes="66690_0 66668_0 66688_0" intLanes=":29_0_0 :29_1_0 :29_2_0 :29_3_0 :29_4_0 :29_5_0" shape="88.22,16.79 92.96,11.65 90.89,9.13 89.86,6.37 89.88,3.36 90.94,0.09 93.05,-3.43 96.19,-7.20 91.10,-12.00 87.40,-8.70 83.66,-6.66 79.90,-5.85 76.10,-6.30 72.28,-7.99 68.42,-10.93 63.68,-5.78">
        <request index="0" response="000000" foes="001000" cont="0"/>
        <request index="1" response="110000" foes="111000" cont="0"/>
        <request index="2" response="100000" foes="100000" cont="0"/>
        <request index="3" response="100011" foes="100011" cont="0"/>
        <request index="4" response="000000" foes="000010" cont="0"/>
        <request index="5" response="000000" foes="001110" cont="0"/>
    </junction>
    <junction id="30" type="priority" x="38.39" y="-38.13" incLanes="66687_0 66673_0 66685_0" intLanes=":30_0_0 :30_1_0 :30_2_0 :30_3_0 :30_4_0 :30_5_0" shape="47.28,-20.87 52.02,-26.02 48.95,-29.38 46.88,-32.91 45.81,-36.60 45.74,-40.46 46.67,-44.49 48.59,-48.67 42.51,-52.13 39.91,-48.37 36.91,-45.56 33.53,-43.71 29.76,-42.81 25.60,-42.87 21.04,-43.88 18.95,-37.20 25.63,-35.06 30.56,-33.25 34.46,-31.35 38.06,-28.94 42.09,-25.58">
        <request index="0" response="000000" foes="001000" cont="0"/>
        <request index="1" response="110000" foes="111000" cont="0"/>
        <request index="2" response="100000" foes="100000" cont="0"/>
        <request index="3" response="100011" foes="100011" cont="0"/>
        <request index="4" response="000000" foes="000010" cont="0"/>
        <request index="5" response="000000" foes="001110" cont="0"/>
    </junction>
    <junction id="31" type="priority" x="107.10" y="20.72" incLanes="66693_0 66703_0 66691_0" intLanes=":31_0_0 :31_1_0 :31_2_0 :31_3_0 :31_4_0 :31_5_0" shape="113.06,40.06 117.87,34.98 114.70,31.36 112.77,27.69 112.09,24.00 112.66,20.26 114.48,16.50 117.55,12.69 112.52,7.83 108.88,11.15 105.41,13.40 102.10,14.60 98.95,14.73 95.96,13.80 93.14,11.81 88.44,17.00">
        <request index="0" response="000000" foes="001000" cont="0"/>
        <request index="1" response="110000" foes="111000" cont="0"/>
        <request index="2" response="100000" foes="100000" cont="0"/>
        <request index="3" response="100011" foes="100011" cont="0"/>
        <request index="4" response="000000" foes="000010" cont="0"/>
        <request index="5" response="000000" foes="001110" cont="0"/>
    </junction>
    <junction id="5" type="dead_end" x="130.24" y="-50.68" incLanes="66667_0" intLanes="" shape="128.98,-51.89 131.51,-49.47" rightOfWay="edgePriority"/>

    <connection from="66668" to="66691" fromLane="0" toLane="0" contPos="-4.00" shape="94.92,-8.40 92.81,-5.99 90.91,-3.41 89.81,-1.58 88.90,0.35 88.54,1.35 88.25,2.38 88.04,3.42 87.94,4.48 87.94,5.55 88.06,6.61 88.30,7.65 88.65,8.66 89.12,9.62 89.67,10.53 91.02,12.18 91.77,12.93" via=":29_2_0" dir="r" state="m"/>
    <connection from="66668" to="66687" fromLane="0" toLane="0" contPos="-4.00" shape="94.92,-8.40 92.06,-5.64 89.98,-4.00 87.74,-2.58 85.35,-1.44 84.11,-1.00 82.83,-0.65 81.52,-0.42 80.21,-0.29 78.88,-0.28 77.56,-0.39 76.25,-0.61 74.97,-0.93 72.49,-1.84 70.14,-3.07 67.93,-4.53 64.87,-7.06" via=":29_3_0" dir="l" state="m"/>
    <connection from="66673" to="66688" fromLane="0" toLane="0" contPos="-4.00" shape="47.07,-49.53 45.66,-46.72 44.89,-44.74 44.31,-42.70 43.95,-40.61 43.85,-38.50 44.02,-36.38 44.47,-34.31 45.19,-32.32 46.15,-30.42 47.31,-28.65 48.63,-26.99 50.83,-24.73" via=":30_2_0" dir="r" state="m"/>
    <connection from="66673" to="66684" fromLane="0" toLane="0" contPos="-4.00" shape="47.07,-49.53 45.10,-46.49 43.54,-44.54 41.80,-42.74 39.85,-41.14 37.70,-39.78 35.39,-38.71 32.95,-37.97 30.44,-37.55 27.93,-37.43 25.44,-37.59 22.98,-37.97 19.47,-38.87" via=":30_3_0" dir="l" state="m"/>
    <connection from="66685" to="66674" fromLane="0" toLane="0" contPos="-4.00" shape="20.50,-42.21 23.59,-41.42 25.70,-41.09 27.83,-40.96 29.96,-41.05 32.06,-41.40 34.10,-42.02 36.04,-42.92 37.84,-44.06 39.49,-45.41 40.98,-46.94 42.31,-48.61 44.03,-51.27" via=":30_4_0" dir="r" state="M"/>
    <connection from="66685" to="66688" fromLane="0" toLane="0" contPos="-4.00" shape="20.50,-42.21 23.54,-41.20 28.51,-39.24 33.35,-36.96 38.03,-34.35 42.52,-31.42 46.80,-28.21 50.83,-24.73" via=":30_5_0" dir="s" state="M"/>
    <connection from="66687" to="66684" fromLane="0" toLane="0" contPos="-4.00" shape="48.46,-22.16 44.60,-25.48 40.51,-28.56 36.22,-31.35 31.75,-33.85 27.12,-36.03 22.36,-37.90 19.47,-38.87" via=":30_0_0" dir="s" state="M"/>
    <connection from="66687" to="66674" fromLane="0" toLane="0" contPos="-4.00" shape="48.46,-22.16 45.94,-24.74 44.40,-26.68 43.04,-28.76 41.91,-31.00 41.05,-33.37 40.51,-35.85 40.31,-38.37 40.43,-40.89 40.85,-43.36 41.52,-45.75 42.41,-48.05 44.03,-51.27" via=":30_1_0" dir="l" state="m"/>
    <connection from="66688" to="66667" fromLane="0" toLane="0" contPos="-4.00" shape="67.21,-9.66 69.91,-7.43 71.78,-6.19 73.76,-5.16 75.84,-4.39 76.86,-4.14 77.92,-3.97 78.98,-3.88 80.05,-3.89 81.11,-3.99 82.16,-4.19 83.20,-4.47 84.19,-4.82 86.21,-5.78 88.09,-6.98 89.87,-8.38 92.37,-10.80" via=":29_4_0" dir="r" state="M"/>
    <connection from="66688" to="66691" fromLane="0" toLane="0" contPos="-4.00" shape="67.21,-9.66 79.51,1.65 91.77,12.93" via=":29_5_0" dir="s" state="M"/>
    <connection from="66690" to="66687" fromLane="0" toLane="0" contPos="-4.00" shape="89.39,15.50 77.14,4.22 64.87,-7.06" via=":29_0_0" dir="s" state="M"/>
    <connection from="66690" to="66667" fromLane="0" toLane="0" contPos="-4.00" shape="89.39,15.50 88.46,14.57 86.81,12.58 86.07,11.42 85.45,10.20 84.95,8.92 84.60,7.58 84.39,6.21 84.34,4.83 84.43,3.47 84.64,2.14 84.97,0.85 85.40,-0.43 86.45,-2.76 87.74,-4.97 89.93,-7.99 92.37,-10.80" via=":29_1_0" dir="l" state="m"/>
    <connection from="66691" to="66702" fromLane="0" toLane="0" contPos="-4.00" shape="91.96,13.10 93.66,14.48 94.58,15.07 95.55,15.58 96.56,16.00 97.61,16.32 98.68,16.53 99.77,16.62 100.86,16.60 101.95,16.47 103.02,16.24 104.07,15.93 106.08,15.06 107.97,13.96 109.75,12.69 112.24,10.56 113.78,9.05" via=":31_4_0" dir="r" state="M"/>
    <connection from="66691" to="66694" fromLane="0" toLane="0" contPos="-4.00" shape="91.96,13.10 112.95,32.72 116.67,36.25" via=":31_5_0" dir="s" state="M"/>
    <connection from="66693" to="66690" fromLane="0" toLane="0" contPos="-4.00" shape="114.24,38.77 110.55,35.27 89.62,15.70" via=":31_0_0" dir="s" state="M"/>
    <connection from="66693" to="66702" fromLane="0" toLane="0" contPos="-4.00" shape="114.24,38.77 111.65,36.03 110.07,33.97 108.70,31.74 107.63,29.34 107.21,28.04 106.90,26.72 106.71,25.37 106.63,24.01 106.68,22.65 106.85,21.31 107.13,19.98 107.52,18.67 108.52,16.26 109.81,13.99 111.31,11.88 113.78,9.05" via=":31_1_0" dir="l" state="m"/>
    <connection from="66703" to="66694" fromLane="0" toLane="0" contPos="-4.00" shape="116.31,11.47 114.16,13.93 112.88,15.72 111.80,17.62 110.96,19.65 110.65,20.70 110.42,21.77 110.28,22.86 110.24,23.96 110.30,25.05 110.46,26.14 110.70,27.21 111.04,28.25 111.93,30.25 113.07,32.12 114.41,33.86 116.67,36.25" via=":31_2_0" dir="r" state="m"/>
    <connection from="66703" to="66690" fromLane="0" toLane="0" contPos="-4.00" shape="116.31,11.47 114.51,13.23 111.61,15.69 109.48,17.17 107.19,18.45 104.75,19.44 103.42,19.82 102.07,20.07 100.69,20.20 99.30,20.18 97.91,20.02 96.55,19.72 95.24,19.29 93.98,18.74 92.78,18.09 91.63,17.34 89.62,15.70" via=":31_3_0" dir="l" state="m"/>

    <connection from=":29_0" to="66687" fromLane="0" toLane="0" dir="s" state="M"/>
    <connection from=":29_1" to="66667" fromLane="0" toLane="0" dir="l" state="M"/>
    <connection from=":29_2" to="66691" fromLane="0" toLane="0" dir="r" state="M"/>
    <connection from=":29_3" to="66687" fromLane="0" toLane="0" dir="l" state="M"/>
    <connection from=":29_4" to="66667" fromLane="0" toLane="0" dir="r" state="M"/>
    <connection from=":29_5" to="66691" fromLane="0" toLane="0" dir="s" state="M"/>
    <connection from=":30_0" to="66684" fromLane="0" toLane="0" dir="s" state="M"/>
    <connection from=":30_1" to="66674" fromLane="0" toLane="0" dir="l" state="M"/>
    <connection from=":30_2" to="66688" fromLane="0" toLane="0" dir="r" state="M"/>
    <connection from=":30_3" to="66684" fromLane="0" toLane="0" dir="l" state="M"/>
    <connection from=":30_4" to="66674" fromLane="0" toLane="0" dir="r" state="M"/>
    <connection from=":30_5" to="66688" fromLane="0" toLane="0" dir="s" state="M"/>
    <connection from=":31_0" to="66690" fromLane="0" toLane="0" dir="s" state="M"/>
    <connection from=":31_1" to="66702" fromLane="0" toLane="0" dir="l" state="M"/>
    <connection from=":31_2" to="66694" fromLane="0" toLane="0" dir="r" state="M"/>
    <connection from=":31_3" to="66690" fromLane="0" toLane="0" dir="l" state="M"/>
    <connection from=":31_4" to="66702" fromLane="0" toLane="0" dir="r" state="M"/>
    <connection from=":31_5" to="66694" fromLane="0" toLane="0" dir="s" state="M"/>

</net>