<routes>
	<vehicle depart="0.1" departLane="0" departPos="33.647052718805924" departSpeed="0.0018484872" id="315" type="bicycle">
		<route edges="784 204"/>
	</vehicle>
	<vehicle depart="0.1" departLane="0" departPos="34.17083033417053" departSpeed="6.9238889" id="316" type="bicycle">
		<route edges="135"/>
	</vehicle>
	<vehicle depart="0.1" departLane="0" departPos="27.40370716600649" departSpeed="1.4416822" id="333" type="bus">
		<route edges="224 133 201"/>
	</vehicle>
	<vehicle depart="0.1" departLane="0" departPos="38.48243569399799" departSpeed="0.0" id="31" type="passenger">
		<route edges="200 135"/>
	</vehicle>
	<vehicle depart="0.1" departLane="0" departPos="18.095631774852148" departSpeed="11.207278" id="32" type="passenger">
		<route edges="785"/>
	</vehicle>
	<vehicle depart="0.1" departLane="0" departPos="17.059648706993123" departSpeed="0.00035315524" id="33" type="passenger">
		<route edges="200 135"/>
	</vehicle>
	<vehicle depart="0.1" departLane="0" departPos="31.688583962132657" departSpeed="0.0" id="34" type="passenger">
		<route edges="200 135"/>
	</vehicle>
	<vehicle depart="0.1" departLane="0" departPos="10.933363371537348" departSpeed="4.8774975" id="35" type="passenger">
		<route edges="133 135"/>
	</vehicle>
	<vehicle depart="0.1" departLane="0" departPos="40.80205416237529" departSpeed="0.0" id="36" type="passenger">
		<route edges="131 133"/>
	</vehicle>
	<vehicle depart="0.1" departLane="0" departPos="32.23747521780277" departSpeed="0.85403512" id="38" type="passenger">
		<route edges="131 133"/>
	</vehicle>
	<vehicle depart="0.1" departLane="0" departPos="50.13450144636456" departSpeed="0.0" id="39" type="passenger">
		<route edges="784 204"/>
	</vehicle>
	<vehicle depart="0.1" departLane="0" departPos="24.560208831666035" departSpeed="2.204727e-05" id="310" type="passenger">
		<route edges="200 135"/>
	</vehicle>
	<vehicle depart="0.1" departLane="0" departPos="22.97793734943265" departSpeed="1.5095571" id="312" type="passenger">
		<route edges="131 133"/>
	</vehicle>
	<vehicle depart="0.1" departLane="0" departPos="38.818298040926614" departSpeed="0.00026493148" id="313" type="passenger">
		<route edges="784 204"/>
	</vehicle>
	<vehicle depart="0.1" departLane="0" departPos="35.768360176525874" departSpeed="5.8716497" id="314" type="passenger">
		<route edges="201 204"/>
	</vehicle>
	<vehicle depart="0.1" departLane="0" departPos="13.92190684900756" departSpeed="1.616027" id="317" type="passenger">
		<route edges="131 133"/>
	</vehicle>
	<vehicle depart="0.1" departLane="0" departPos="31.73683712406838" departSpeed="0.00191076" id="318" type="passenger">
		<route edges="784 204"/>
	</vehicle>
	<vehicle depart="0.1" departLane="0" departPos="23.817962044604535" departSpeed="5.0428398" id="319" type="passenger">
		<route edges="201 204"/>
	</vehicle>
	<vehicle depart="0.1" departLane="0" departPos="9.556295262646186" departSpeed="0.0031861682" id="320" type="passenger">
		<route edges="200 135"/>
	</vehicle>
	<vehicle depart="0.1" departLane="0" departPos="12.265216286410048" departSpeed="4.4356011" id="322" type="passenger">
		<route edges="201 204"/>
	</vehicle>
	<vehicle depart="0.1" departLane="0" departPos="69.44213656041835" departSpeed="0.0" id="326" type="passenger">
		<route edges="203 200"/>
	</vehicle>
	<vehicle depart="0.1" departLane="0" departPos="41.96583405622091" departSpeed="0.0" id="327" type="passenger">
		<route edges="224 133 201 785"/>
	</vehicle>
	<vehicle depart="0.1" departLane="0" departPos="14.612127100774492" departSpeed="0.035794076" id="328" type="passenger">
		<route edges="784 204"/>
	</vehicle>
	<vehicle depart="0.1" departLane="0" departPos="62.41872740381265" departSpeed="0.075641583" id="329" type="passenger">
		<route edges="203 200"/>
	</vehicle>
	<vehicle depart="0.1" departLane="0" departPos="7.324921670922988" departSpeed="0.10085933" id="331" type="passenger">
		<route edges="784 204"/>
	</vehicle>
	<vehicle depart="0.1" departLane="0" departPos="10.250351907860242" departSpeed="1.7649858" id="334" type="passenger">
		<route edges="224 133"/>
	</vehicle>
	<vehicle depart="0.1" departLane="0" departPos="32.312561561823394" departSpeed="9.5271941" id="335" type="passenger">
		<route edges="203 200"/>
	</vehicle>
	<vehicle depart="0.1" departLane="0" departPos="5.925227423666739" departSpeed="0.79121336" id="336" type="passenger">
		<route edges="131 133"/>
	</vehicle>
	<vehicle depart="0.1" departLane="0" departPos="6.704410832572018" departSpeed="12.992533" id="337" type="passenger">
		<route edges="203 200"/>
	</vehicle>
	<vehicle depart="0.1" departLane="0" departPos="43.0329895015509" departSpeed="1.7619286e-05" id="311" type="motorcycle">
		<route edges="784 204"/>
	</vehicle>
	<vehicle depart="0.1" departLane="0" departPos="1.25" departSpeed="0.061032204" id="324" type="motorcycle">
		<route edges="200 135"/>
	</vehicle>
	<vehicle depart="0.1" departLane="0" departPos="33.74390087900288" departSpeed="0.51029883" id="330" type="motorcycle">
		<route edges="224 133 135"/>
	</vehicle>
	<vehicle depart="0.1" departLane="0" departPos="52.52578136422547" departSpeed="2.3739957" id="332" type="motorcycle">
		<route edges="203 200"/>
	</vehicle>
	<vehicle depart="0.1" departLane="0" departPos="11.9230390439903" departSpeed="6.0309517" id="37" type="truck">
		<route edges=":21_2 204"/>
	</vehicle>
	<vehicle depart="0.1" departLane="0" departPos="24.31592075400071" departSpeed="0.0099747607" id="323" type="truck">
		<route edges="784 204"/>
	</vehicle>
</routes>
