<routes>
	<vehicle depart="0.1" departLane="0" departPos="59.82825503661617" departSpeed="0.0" id="34" type="bicycle">
		<route edges="184 156"/>
	</vehicle>
	<vehicle depart="0.1" departLane="0" departPos="119.79934326011278" departSpeed="6.8987516" id="348" type="bicycle">
		<route edges="57 19"/>
	</vehicle>
	<vehicle depart="0.1" departLane="0" departPos="87.84843579799929" departSpeed="6.8954719" id="364" type="bicycle">
		<route edges="57 19"/>
	</vehicle>
	<vehicle depart="0.1" departLane="0" departPos="39.76006403705932" departSpeed="0.0" id="328" type="bus">
		<route edges="156 20"/>
	</vehicle>
	<vehicle depart="0.1" departLane="0" departPos="16.804774057838728" departSpeed="1.3617045" id="388" type="bus">
		<route edges="110 248"/>
	</vehicle>
	<vehicle depart="0.1" departLane="0" departPos="20.97328627192409" departSpeed="4.2544843" id="390" type="bus">
		<route edges="249 17 20 56 1131"/>
	</vehicle>
	<vehicle depart="0.1" departLane="0" departPos="53.61553371863209" departSpeed="0.0" id="31" type="passenger">
		<route edges="156 20"/>
	</vehicle>
	<vehicle depart="0.1" departLane="0" departPos="22.23197925125622" departSpeed="15.313408" id="33" type="passenger">
		<route edges="301 304"/>
	</vehicle>
	<vehicle depart="0.1" departLane="0" departPos="23.038384793327012" departSpeed="0.0" id="36" type="passenger">
		<route edges="16 248"/>
	</vehicle>
	<vehicle depart="0.1" departLane="0" departPos="51.567294832902526" departSpeed="0.0" id="38" type="passenger">
		<route edges="14 17"/>
	</vehicle>
	<vehicle depart="0.1" departLane="0" departPos="46.693120789114126" departSpeed="0.0" id="311" type="passenger">
		<route edges="156 20"/>
	</vehicle>
	<vehicle depart="0.1" departLane="0" departPos="44.66827754082443" departSpeed="0.0" id="312" type="passenger">
		<route edges="14 17"/>
	</vehicle>
	<vehicle depart="0.1" departLane="0" departPos="60.478542786735275" departSpeed="0.0" id="314" type="passenger">
		<route edges="156 20"/>
	</vehicle>
	<vehicle depart="0.1" departLane="0" departPos="70.30000147170942" departSpeed="0.0" id="315" type="passenger">
		<route edges="121 300"/>
	</vehicle>
	<vehicle depart="0.1" departLane="0" departPos="53.56610439157895" departSpeed="0.0" id="321" type="passenger">
		<route edges="121 300"/>
	</vehicle>
	<vehicle depart="0.1" departLane="0" departPos="15.165741928623536" departSpeed="0.40000043" id="324" type="passenger">
		<route edges="16 248"/>
	</vehicle>
	<vehicle depart="0.1" departLane="0" departPos="37.45813883815265" departSpeed="0.0" id="326" type="passenger">
		<route edges="121 300"/>
	</vehicle>
	<vehicle depart="0.1" departLane="0" departPos="2.5" departSpeed="13.849512" id="327" type="passenger">
		<route edges="301 304"/>
	</vehicle>
	<vehicle depart="0.1" departLane="0" departPos="33.167491847602946" departSpeed="0.0" id="331" type="passenger">
		<route edges="14 17"/>
	</vehicle>
	<vehicle depart="0.1" departLane="0" departPos="5.899421328805447" departSpeed="1.7530543" id="332" type="passenger">
		<route edges="16 248"/>
	</vehicle>
	<vehicle depart="0.1" departLane="0" departPos="30.524368624775818" departSpeed="0.0" id="335" type="passenger">
		<route edges="121 300"/>
	</vehicle>
	<vehicle depart="0.1" departLane="0" departPos="54.8921032523995" departSpeed="0.0" id="336" type="passenger">
		<route edges="184 156"/>
	</vehicle>
	<vehicle depart="0.1" departLane="0" departPos="25.667771012136324" departSpeed="0.0" id="339" type="passenger">
		<route edges="14 17"/>
	</vehicle>
	<vehicle depart="0.1" departLane="0" departPos="54.656089835729084" departSpeed="0.0" id="341" type="passenger">
		<route edges="303 120"/>
	</vehicle>
	<vehicle depart="0.1" departLane="0" departPos="175.07550434481047" departSpeed="0.0" id="342" type="passenger">
		<route edges="57 301 304"/>
	</vehicle>
	<vehicle depart="0.1" departLane="0" departPos="25.25212034969907" departSpeed="0.0" id="343" type="passenger">
		<route edges="156 20"/>
	</vehicle>
	<vehicle depart="0.1" departLane="0" departPos="48.19070351440456" departSpeed="0.0" id="344" type="passenger">
		<route edges="184 156"/>
	</vehicle>
	<vehicle depart="0.1" departLane="0" departPos="23.50383483987731" departSpeed="1.2549383e-05" id="345" type="passenger">
		<route edges="121 300"/>
	</vehicle>
	<vehicle depart="0.1" departLane="0" departPos="70.30141926657961" departSpeed="0.0" id="346" type="passenger">
		<route edges="110 17 20 56"/>
	</vehicle>
	<vehicle depart="0.1" departLane="0" departPos="18.385345117280966" departSpeed="0.0" id="347" type="passenger">
		<route edges="14 17"/>
	</vehicle>
	<vehicle depart="0.1" departLane="0" departPos="22.32809061877865" departSpeed="2.5001737" id="349" type="passenger">
		<route edges="159 183"/>
	</vehicle>
	<vehicle depart="0.1" departLane="0" departPos="41.269597752224705" departSpeed="0.0" id="350" type="passenger">
		<route edges="184 156"/>
	</vehicle>
	<vehicle depart="0.1" departLane="0" departPos="47.89830760528947" departSpeed="0.0" id="351" type="passenger">
		<route edges="303 120"/>
	</vehicle>
	<vehicle depart="0.1" departLane="0" departPos="14.149735698413151" departSpeed="1.3277001" id="352" type="passenger">
		<route edges="159 156 20"/>
	</vehicle>
	<vehicle depart="0.1" departLane="0" departPos="63.269929505918995" departSpeed="0.0019799062" id="353" type="passenger">
		<route edges="110 17 157"/>
	</vehicle>
	<vehicle depart="0.1" departLane="0" departPos="167.8322652557914" departSpeed="0.066599488" id="354" type="passenger">
		<route edges="57 19 16"/>
	</vehicle>
	<vehicle depart="0.1" departLane="0" departPos="33.99399231726892" departSpeed="2.6355476e-05" id="355" type="passenger">
		<route edges="184 156"/>
	</vehicle>
	<vehicle depart="0.1" departLane="0" departPos="16.571495303677594" departSpeed="8.1378973e-05" id="356" type="passenger">
		<route edges="121 300"/>
	</vehicle>
	<vehicle depart="0.1" departLane="0" departPos="160.16438283631499" departSpeed="0.52609908" id="359" type="passenger">
		<route edges="57 301 304"/>
	</vehicle>
	<vehicle depart="0.1" departLane="0" departPos="11.10044380387324" departSpeed="1.505893e-05" id="360" type="passenger">
		<route edges="14 17"/>
	</vehicle>
	<vehicle depart="0.1" departLane="0" departPos="26.537921969291116" departSpeed="0.00018979022" id="361" type="passenger">
		<route edges="184 156"/>
	</vehicle>
	<vehicle depart="0.1" departLane="0" departPos="55.85702327052538" departSpeed="0.018472999" id="362" type="passenger">
		<route edges="110 248"/>
	</vehicle>
	<vehicle depart="0.1" departLane="0" departPos="151.05200791441663" departSpeed="1.669303" id="363" type="passenger">
		<route edges="57 19"/>
	</vehicle>
	<vehicle depart="0.1" departLane="0" departPos="40.78239183406038" departSpeed="1.0738481e-05" id="365" type="passenger">
		<route edges="303 120"/>
	</vehicle>
	<vehicle depart="0.1" departLane="0" departPos="19.035613877113644" departSpeed="0.00092947905" id="366" type="passenger">
		<route edges="184 156"/>
	</vehicle>
	<vehicle depart="0.1" departLane="0" departPos="48.40350174124277" departSpeed="0.087329233" id="367" type="passenger">
		<route edges="110 248"/>
	</vehicle>
	<vehicle depart="0.1" departLane="0" departPos="9.59858329321106" departSpeed="0.00033530396" id="368" type="passenger">
		<route edges="121 300"/>
	</vehicle>
	<vehicle depart="0.1" departLane="0" departPos="139.982556961021" departSpeed="3.1537435" id="369" type="passenger">
		<route edges="57 19"/>
	</vehicle>
	<vehicle depart="0.1" departLane="0" departPos="33.63467500590907" departSpeed="0.00017536306" id="370" type="passenger">
		<route edges="303 120"/>
	</vehicle>
	<vehicle depart="0.1" departLane="0" departPos="127.17184519930159" departSpeed="4.8274597" id="371" type="passenger">
		<route edges="57 19"/>
	</vehicle>
	<vehicle depart="0.1" departLane="0" departPos="41.13887141688871" departSpeed="0.27390786" id="372" type="passenger">
		<route edges="110 248"/>
	</vehicle>
	<vehicle depart="0.1" departLane="0" departPos="26.526161870419926" departSpeed="0.0014271871" id="373" type="passenger">
		<route edges="303 120"/>
	</vehicle>
	<vehicle depart="0.1" departLane="0" departPos="113.17003052337122" departSpeed="6.0493738" id="374" type="passenger">
		<route edges="57 19"/>
	</vehicle>
	<vehicle depart="0.1" departLane="0" departPos="2.5" departSpeed="12.490648" id="376" type="passenger">
		<route edges=":60_1 301 304"/>
	</vehicle>
	<vehicle depart="0.1" departLane="0" departPos="33.69599022635768" departSpeed="0.63055549" id="377" type="passenger">
		<route edges="110 248"/>
	</vehicle>
	<vehicle depart="0.1" departLane="0" departPos="97.06951181265607" departSpeed="7.2378001" id="378" type="passenger">
		<route edges="57 19"/>
	</vehicle>
	<vehicle depart="0.1" departLane="0" departPos="19.31535854850983" departSpeed="0.0078202567" id="380" type="passenger">
		<route edges="303 120"/>
	</vehicle>
	<vehicle depart="0.1" departLane="0" departPos="79.72310977424459" departSpeed="8.431731" id="381" type="passenger">
		<route edges="57 19"/>
	</vehicle>
	<vehicle depart="0.1" departLane="0" departPos="25.391304146585277" departSpeed="1.0856637" id="382" type="passenger">
		<route edges="110 248"/>
	</vehicle>
	<vehicle depart="0.1" departLane="0" departPos="60.70821593823679" departSpeed="9.7961681" id="384" type="passenger">
		<route edges="57 19"/>
	</vehicle>
	<vehicle depart="0.1" departLane="0" departPos="11.611758803327126" departSpeed="8.5444926" id="385" type="passenger">
		<route edges="17 20 301 304"/>
	</vehicle>
	<vehicle depart="0.1" departLane="0" departPos="40.10087022994065" departSpeed="11.081215" id="386" type="passenger">
		<route edges="57 19"/>
	</vehicle>
	<vehicle depart="0.1" departLane="0" departPos="17.661549519188746" departSpeed="10.813704" id="387" type="passenger">
		<route edges="57 19"/>
	</vehicle>
	<vehicle depart="0.1" departLane="0" departPos="2.5" departSpeed="8.1012947" id="389" type="passenger">
		<route edges="57 19"/>
	</vehicle>
	<vehicle depart="0.1" departLane="0" departPos="6.596584404800529" departSpeed="5.1180856" id="391" type="passenger">
		<route edges=":57_4 57 19"/>
	</vehicle>
	<vehicle depart="0.1" departLane="0" departPos="5.511040918649737" departSpeed="1.7195764" id="392" type="passenger">
		<route edges="249 13"/>
	</vehicle>
	<vehicle depart="0.1" departLane="0" departPos="3.8488333922604134" departSpeed="0.0" id="32" type="motorcycle">
		<route edges="881 1961"/>
	</vehicle>
	<vehicle depart="0.1" departLane="0" departPos="37.769198858201335" departSpeed="0.0" id="322" type="motorcycle">
		<route edges="14 17"/>
	</vehicle>
	<vehicle depart="0.1" departLane="0" departPos="59.11287098220899" departSpeed="0.0" id="334" type="motorcycle">
		<route edges="184 156"/>
	</vehicle>
	<vehicle depart="0.1" departLane="0" departPos="5.100837425810964" departSpeed="18.181011" id="337" type="motorcycle">
		<route edges="160"/>
	</vehicle>
	<vehicle depart="0.1" departLane="0" departPos="6.920532698644277" departSpeed="0.4843625" id="358" type="motorcycle">
		<route edges="159 156 20"/>
	</vehicle>
	<vehicle depart="0.1" departLane="0" departPos="63.228320179983726" departSpeed="0.0" id="318" type="truck">
		<route edges="121 300"/>
	</vehicle>
	<vehicle depart="0.1" departLane="0" departPos="46.77466494520279" departSpeed="0.0" id="323" type="truck">
		<route edges="121 300"/>
	</vehicle>
</routes>
