<!-- generated on 2020-12-18 16:01:08.119391 by ipykernel_launcher.py v1_2_0+5214-53edc58fcd
-->
<nodes>
	<node id="1" type="from" x="88.90865" y="125.19900000000001"/>
	<node id="2" type="to" x="79.3279" y="125.51910000000001"/>
	<node id="3" type="to" x="71.87045" y="139.58145"/>
	<node id="4" type="from" x="-20.507649999999998" y="62.9549"/>
	<node id="5" type="to" x="-6.4883" y="55.988733333333336"/>
	<node id="6" type="to" x="28.76495" y="66.46260000000001"/>
	<node id="7" type="to" x="42.4656" y="87.25201666666665"/>
	<node id="8" type="to" x="46.27828333333333" y="94.84133333333334"/>
	<node id="9" type="to" x="56.171549999999996" y="114.79456666666665"/>
	<node id="10" type="to" x="69.01285" y="140.98521666666667"/>
	<node id="11" type="to" x="1.85555" y="49.961749999999995"/>
	<node id="12" type="to" x="23.962425" y="38.577625000000005"/>
	<node id="13" type="to" x="38.449725" y="31.3709"/>
	<node id="14" type="to" x="53.16735" y="22.11255"/>
	<node id="15" type="to" x="-3.5718500000000004" y="35.36705"/>
	<node id="16" type="to" x="-29.731150000000003" y="-34.45255"/>
	<node id="17" type="from" x="58.471875" y="32.908874999999995"/>
	<node id="18" type="to" x="46.208675" y="38.9039"/>
	<node id="19" type="to" x="41.06386666666666" y="43.4134"/>
	<node id="20" type="to" x="35.12061666666666" y="46.34368333333333"/>
	<node id="21" type="to" x="28.391075" y="47.773849999999996"/>
	<node id="22" type="to" x="6.303699999999999" y="58.77975"/>
	<node id="23" type="to" x="-3.32185" y="63.52315"/>
	<node id="24" type="to" x="-15.721816666666667" y="72.60241666666667"/>
	<node id="25" type="to" x="79.1172" y="120.45904999999999"/>
	<node id="26" type="to" x="88.69800000000001" y="120.13895"/>
	<node id="27" type="from" x="-18.4855875" y="-40.2255"/>
	<node id="28" type="to" x="-14.41665" y="-32.287425000000006"/>
	<node id="29" type="to" x="-7.837820000000001" y="-15.62303"/>
	<node id="30" type="to" x="13.216999999999999" y="26.541739999999997"/>
	<node id="31" type="to" x="18.366483333333335" y="37.61566666666667"/>
	<node id="32" type="to" x="25.726499999999998" y="52.991166666666665"/>
	<node id="33" type="from" x="58.13746" y="146.32748"/>
	<node id="34" type="to" x="45.178819999999995" y="119.95256000000002"/>
	<node id="35" type="to" x="35.41725" y="100.27556"/>
	<node id="36" type="to" x="30.24309166666666" y="93.35998333333332"/>
	<node id="37" type="to" x="19.246875" y="71.26400833333334"/>
	<node id="38" type="to" x="11.9148" y="59.742066666666666"/>
	<node id="39" type="to" x="4.5885" y="44.84788333333333"/>
</nodes>
