<?xml version="1.0" encoding="UTF-8"?>

<!-- generated on Fri Dec 18 16:01:08 2020 by Eclipse SUMO netconvert Version 1.8.0
<configuration xmlns:xsi="http://www.w3.org/2001/XMLSchema-instance" xsi:noNamespaceSchemaLocation="http://sumo.dlr.de/xsd/netconvertConfiguration.xsd">

    <input>
        <node-files value="./converted_scenarios/NGSIM/Lankershim/USA_Lanker-2_25_I-1-1/nodes.net.xml"/>
        <edge-files value="./converted_scenarios/NGSIM/Lankershim/USA_Lanker-2_25_I-1-1/edges.net.xml"/>
        <connection-files value="./converted_scenarios/NGSIM/Lankershim/USA_Lanker-2_25_I-1-1/_connections.net.xml"/>
        <tllogic-files value="./converted_scenarios/NGSIM/Lankershim/USA_Lanker-2_25_I-1-1/_tll.net.xml"/>
    </input>

    <output>
        <output-file value="./converted_scenarios/NGSIM/Lankershim/USA_Lanker-2_25_I-1-1/USA_Lanker-2_25_I-1-1.net.xml"/>
    </output>

    <processing>
        <plain.extend-edge-shape value="true"/>
        <geometry.remove.keep-edges.explicit value="true"/>
        <geometry.avoid-overlap value="true"/>
        <offset.disable-normalization value="true"/>
    </processing>

    <junctions>
        <no-turnarounds value="true"/>
        <junctions.internal-link-detail value="20"/>
    </junctions>

    <report>
        <aggregate-warnings value="5"/>
    </report>

    <random_number>
        <seed value="1234"/>
    </random_number>

</configuration>
-->

<net version="1.6" junctionCornerDetail="5" junctionLinkDetail="20" limitTurnSpeed="5.50" xmlns:xsi="http://www.w3.org/2001/XMLSchema-instance" xsi:noNamespaceSchemaLocation="http://sumo.dlr.de/xsd/net_file.xsd">

    <location netOffset="0.00,0.00" convBoundary="-29.73,-40.23,88.91,146.33" origBoundary="-32.55,-42.41,88.91,148.95" projParameter="!"/>

    <edge id=":11_0" function="internal">
        <lane id=":11_0_0" index="0" disallow="rail_fast" speed="36.11" length="0.26" width="3.31" shape="2.68,47.73 2.45,47.84"/>
        <lane id=":11_0_1" index="1" disallow="rail_fast" speed="36.11" length="0.26" width="3.11" shape="4.15,50.59 3.91,50.71"/>
    </edge>
    <edge id=":12_0" function="internal">
        <lane id=":12_0_0" index="0" disallow="rail_fast" speed="36.11" length="3.06" width="3.50" shape="21.82,37.77 24.56,36.38"/>
        <lane id=":12_0_1" index="1" disallow="rail_fast" speed="36.11" length="3.06" width="3.31" shape="23.33,40.81 26.06,39.44"/>
    </edge>
    <edge id=":13_0" function="internal">
        <lane id=":13_0_0" index="0" disallow="bus truck rail_fast" speed="11.02" length="10.30" width="3.87" shape="27.22,27.41 27.89,27.57 28.49,27.72 29.04,27.84 29.55,27.94 30.02,28.02 30.46,28.07 30.88,28.10 31.27,28.11 31.66,28.09 32.03,28.05 32.41,27.98 32.79,27.88 33.19,27.76 33.61,27.61 34.05,27.43 34.53,27.22 35.04,26.98 35.60,26.72 36.22,26.42"/>
        <lane id=":13_0_1" index="1" disallow="bus truck rail_fast" speed="12.20" length="10.30" width="3.51" shape="27.11,30.96 27.90,31.15 28.63,31.31 29.29,31.45 29.90,31.56 30.46,31.65 30.99,31.71 31.48,31.75 31.95,31.75 32.41,31.73 32.86,31.68 33.31,31.60 33.77,31.49 34.24,31.34 34.74,31.16 35.27,30.95 35.84,30.70 36.45,30.42 37.12,30.10 37.85,29.74"/>
    </edge>
    <edge id=":13_2" function="internal">
        <lane id=":13_2_0" index="0" disallow="bus truck rail_fast" speed="36.11" length="11.23" width="3.51" shape="27.89,34.98 37.85,29.74"/>
        <lane id=":13_2_1" index="1" disallow="bus truck rail_fast" speed="36.11" length="11.23" width="3.38" shape="29.63,38.30 30.32,37.82 30.93,37.39 31.50,37.00 32.01,36.66 32.48,36.35 32.93,36.08 33.34,35.83 33.74,35.60 34.14,35.38 34.53,35.18 34.93,34.97 35.35,34.77 35.79,34.56 36.26,34.33 36.77,34.09 37.33,33.83 37.95,33.53 38.63,33.21 39.38,32.84"/>
    </edge>
    <edge id=":13_4" function="internal">
        <lane id=":13_4_0" index="0" disallow="rail_fast" speed="36.11" length="13.86" width="3.51" shape="25.44,35.93 37.85,29.74"/>
        <lane id=":13_4_1" index="1" disallow="rail_fast" speed="36.11" length="13.86" width="3.38" shape="26.97,38.99 39.38,32.84"/>
    </edge>
    <edge id=":15_0" function="internal">
        <lane id=":15_0_0" index="0" disallow="rail_fast" speed="36.11" length="19.07" width="2.82" shape="2.99,48.60 -5.46,31.50"/>
        <lane id=":15_0_1" index="1" disallow="rail_fast" speed="36.11" length="19.07" width="2.97" shape="5.77,47.17 -2.63,30.05"/>
        <lane id=":15_0_2" index="2" disallow="rail_fast" speed="36.11" length="19.07" width="2.96" shape="8.46,45.78 0.06,28.67"/>
    </edge>
    <edge id=":15_3" function="internal">
        <lane id=":15_3_0" index="0" disallow="bus truck rail_fast" speed="13.68" length="23.17" width="2.96" shape="14.88,45.55 14.13,45.39 13.37,45.14 12.61,44.82 11.84,44.42 11.08,43.93 10.31,43.37 9.54,42.72 8.76,41.99 7.98,41.19 7.20,40.30 6.42,39.33 5.64,38.28 4.85,37.15 4.06,35.94 3.26,34.65 2.47,33.27 1.67,31.82 0.87,30.28 0.06,28.67"/>
    </edge>
    <edge id=":15_4" function="internal">
        <lane id=":15_4_0" index="0" disallow="bus truck rail_fast" speed="36.11" length="4.30" width="2.82" shape="-3.57,35.37 -5.46,31.50"/>
    </edge>
    <edge id=":18_0" function="internal">
        <lane id=":18_0_0" index="0" disallow="rail_fast" speed="14.45" length="8.28" width="3.25" shape="50.64,38.76 50.10,39.03 49.61,39.27 49.17,39.50 48.77,39.71 48.41,39.91 48.08,40.10 47.78,40.30 47.50,40.49 47.24,40.69 46.99,40.90 46.75,41.13 46.51,41.37 46.27,41.64 46.02,41.93 45.76,42.26 45.49,42.61 45.19,43.01 44.86,43.45 44.50,43.94"/>
        <lane id=":18_0_1" index="1" disallow="rail_fast" speed="36.11" length="8.28" width="3.60" shape="50.64,38.76 43.41,42.33"/>
        <lane id=":18_0_2" index="2" disallow="rail_fast" speed="36.11" length="8.28" width="3.67" shape="49.06,35.49 41.35,39.29"/>
    </edge>
    <edge id=":19_0" function="internal">
        <lane id=":19_0_0" index="0" disallow="rail_fast" speed="9.74" length="3.41" width="3.19" shape="43.17,45.76 43.00,45.97 42.85,46.16 42.71,46.33 42.57,46.48 42.44,46.60 42.31,46.71 42.18,46.81 42.05,46.89 41.93,46.97 41.79,47.04 41.65,47.10 41.51,47.16 41.35,47.22 41.19,47.29 41.01,47.36 40.82,47.44 40.61,47.53 40.38,47.63 40.13,47.74"/>
        <lane id=":19_0_1" index="1" disallow="rail_fast" speed="36.11" length="3.41" width="3.52" shape="41.69,43.18 38.66,44.69"/>
        <lane id=":19_0_2" index="2" disallow="rail_fast" speed="36.11" length="3.41" width="3.68" shape="39.88,40.02 37.08,41.42"/>
    </edge>
    <edge id=":2_0" function="internal">
        <lane id=":2_0_0" index="0" disallow="bus truck rail_fast" speed="8.75" length="5.40" width="3.35" shape="79.73,125.51 79.33,125.52 78.97,125.53 78.65,125.55 78.35,125.57 78.08,125.60 77.82,125.64 77.59,125.68 77.37,125.73 77.15,125.80 76.95,125.87 76.75,125.96 76.55,126.07 76.35,126.20 76.14,126.34 75.92,126.50 75.68,126.69 75.43,126.89 75.16,127.13 74.86,127.38"/>
    </edge>
    <edge id=":20_0" function="internal">
        <lane id=":20_0_0" index="0" disallow="bus truck rail_fast" speed="14.27" length="3.68" width="2.93" shape="37.51,49.01 37.26,49.13 37.04,49.24 36.83,49.33 36.65,49.42 36.48,49.49 36.32,49.57 36.18,49.64 36.04,49.71 35.91,49.78 35.78,49.86 35.66,49.94 35.54,50.03 35.41,50.12 35.28,50.23 35.14,50.35 34.99,50.49 34.84,50.65 34.66,50.82 34.47,51.02"/>
    </edge>
    <edge id=":20_1" function="internal">
        <lane id=":20_1_0" index="0" disallow="rail_fast" speed="36.11" length="4.87" width="3.46" shape="36.06,45.98 31.71,48.13"/>
        <lane id=":20_1_1" index="1" disallow="rail_fast" speed="36.11" length="4.87" width="3.70" shape="34.50,42.71 30.13,44.90"/>
    </edge>
    <edge id=":20_3" function="internal">
        <lane id=":20_3_0" index="0" disallow="bus truck rail_fast" speed="36.11" length="4.93" width="3.01" shape="34.50,42.71 34.17,42.88 33.87,43.02 33.60,43.15 33.35,43.27 33.12,43.37 32.91,43.46 32.72,43.54 32.53,43.61 32.34,43.68 32.16,43.74 31.97,43.80 31.77,43.86 31.57,43.91 31.34,43.98 31.10,44.04 30.84,44.11 30.55,44.19 30.23,44.27 29.87,44.37"/>
    </edge>
    <edge id=":21_0" function="internal">
        <lane id=":21_0_0" index="0" disallow="rail_fast" speed="36.11" length="3.05" width="3.21" shape="30.53,48.71 27.80,50.06"/>
        <lane id=":21_0_1" index="1" disallow="rail_fast" speed="36.11" length="3.05" width="3.68" shape="28.95,45.49 26.23,46.86"/>
    </edge>
    <edge id=":22_0" function="internal">
        <lane id=":22_0_0" index="0" disallow="rail_fast" speed="36.11" length="10.83" width="3.17" shape="16.28,55.76 6.57,60.57"/>
        <lane id=":22_0_1" index="1" disallow="rail_fast" speed="36.11" length="10.83" width="3.68" shape="14.71,52.63 5.03,57.49"/>
    </edge>
    <edge id=":22_2" function="internal">
        <lane id=":22_2_0" index="0" disallow="bus truck rail_fast" speed="9.83" length="11.33" width="3.68" shape="11.66,48.86 11.54,49.47 11.39,50.06 11.22,50.63 11.02,51.19 10.80,51.73 10.55,52.25 10.28,52.76 9.98,53.25 9.65,53.72 9.31,54.17 8.93,54.61 8.53,55.03 8.11,55.43 7.66,55.82 7.18,56.19 6.68,56.54 6.16,56.87 5.61,57.19 5.03,57.49"/>
    </edge>
    <edge id=":23_0" function="internal">
        <lane id=":23_0_0" index="0" disallow="bus truck rail_fast" speed="36.11" length="4.83" width="5.13" shape="-7.59,71.72 -2.91,70.50"/>
    </edge>
    <edge id=":23_1" function="internal">
        <lane id=":23_1_0" index="0" disallow="rail_fast" speed="36.11" length="4.52" width="3.11" shape="-0.67,64.12 -4.71,66.19"/>
        <lane id=":23_1_1" index="1" disallow="rail_fast" speed="36.11" length="4.52" width="3.66" shape="-2.00,60.97 -6.01,63.05"/>
    </edge>
    <edge id=":25_0" function="internal">
        <lane id=":25_0_0" index="0" disallow="bus truck rail_fast" speed="36.11" length="2.87" width="5.36" shape="77.68,120.44 80.55,120.41"/>
    </edge>
    <edge id=":28_0" function="internal">
        <lane id=":28_0_0" index="0" disallow="rail_fast" speed="36.11" length="7.96" width="3.51" shape="-11.80,-37.64 -8.19,-30.30"/>
        <lane id=":28_0_1" index="1" disallow="rail_fast" speed="36.11" length="7.96" width="2.89" shape="-14.70,-36.05 -11.11,-28.86"/>
        <lane id=":28_0_2" index="2" disallow="rail_fast" speed="36.11" length="7.96" width="3.01" shape="-17.37,-34.59 -13.83,-27.51"/>
        <lane id=":28_0_3" index="3" disallow="rail_fast" speed="36.11" length="7.96" width="2.82" shape="-20.07,-33.12 -16.54,-26.18"/>
        <lane id=":28_0_4" index="4" disallow="bus rail_fast" speed="36.11" length="7.96" width="2.91" shape="-20.07,-33.12 -19.80,-32.60 -19.56,-32.13 -19.35,-31.70 -19.16,-31.31 -18.99,-30.95 -18.84,-30.61 -18.70,-30.30 -18.58,-29.99 -18.48,-29.70 -18.38,-29.40 -18.28,-29.10 -18.19,-28.79 -18.10,-28.45 -18.01,-28.10 -17.92,-27.71 -17.82,-27.29 -17.71,-26.82 -17.59,-26.30 -17.45,-25.73"/>
    </edge>
    <edge id=":29_0" function="internal">
        <lane id=":29_0_0" index="0" disallow="rail_fast" speed="36.11" length="3.88" width="3.35" shape="-3.41,-20.60 -1.71,-17.18"/>
        <lane id=":29_0_1" index="1" disallow="rail_fast" speed="36.11" length="3.88" width="2.89" shape="-6.26,-19.12 -4.54,-15.68"/>
        <lane id=":29_0_2" index="2" disallow="rail_fast" speed="36.11" length="3.88" width="3.08" shape="-8.95,-17.72 -7.22,-14.26"/>
        <lane id=":29_0_3" index="3" disallow="rail_fast" speed="36.11" length="3.88" width="2.82" shape="-11.62,-16.34 -9.87,-12.85"/>
        <lane id=":29_0_4" index="4" disallow="bus rail_fast" speed="36.11" length="3.88" width="3.05" shape="-14.01,-15.10 -13.91,-14.82 -13.82,-14.57 -13.74,-14.34 -13.67,-14.14 -13.60,-13.95 -13.54,-13.78 -13.48,-13.62 -13.42,-13.46 -13.36,-13.32 -13.31,-13.17 -13.25,-13.03 -13.18,-12.88 -13.12,-12.72 -13.04,-12.55 -12.96,-12.37 -12.86,-12.17 -12.76,-11.96 -12.64,-11.72 -12.51,-11.45"/>
    </edge>
    <edge id=":30_0" function="internal">
        <lane id=":30_0_0" index="0" disallow="bus truck rail_fast" speed="10.23" length="10.24" width="3.11" shape="18.02,21.75 18.25,22.15 18.51,22.54 18.79,22.92 19.09,23.28 19.42,23.63 19.77,23.97 20.14,24.30 20.53,24.61 20.95,24.91 21.38,25.20 21.84,25.47 22.33,25.73 22.83,25.98 23.36,26.21 23.91,26.43 24.49,26.64 25.08,26.84 25.70,27.02 26.34,27.19"/>
    </edge>
    <edge id=":30_1" function="internal">
        <lane id=":30_1_0" index="0" disallow="bus truck rail_fast" speed="11.58" length="11.05" width="3.13" shape="14.96,23.36 15.32,24.07 15.67,24.70 16.00,25.27 16.32,25.78 16.63,26.23 16.95,26.63 17.27,26.99 17.60,27.31 17.95,27.60 18.31,27.86 18.70,28.10 19.12,28.33 19.57,28.55 20.05,28.76 20.58,28.98 21.16,29.21 21.79,29.46 22.47,29.73 23.22,30.03"/>
    </edge>
    <edge id=":30_2" function="internal">
        <lane id=":30_2_0" index="0" disallow="rail_fast" speed="36.11" length="10.45" width="3.12" shape="14.96,23.36 19.53,32.91"/>
        <lane id=":30_2_1" index="1" disallow="rail_fast" speed="36.11" length="10.45" width="3.06" shape="12.23,24.79 16.73,34.23"/>
        <lane id=":30_2_2" index="2" disallow="rail_fast" speed="36.11" length="10.45" width="2.98" shape="9.53,26.21 13.99,35.52"/>
    </edge>
    <edge id=":30_5" function="internal">
        <lane id=":30_5_0" index="0" disallow="bus truck rail_fast" speed="36.11" length="10.20" width="2.87" shape="6.85,27.62 7.19,28.31 7.49,28.93 7.77,29.49 8.02,29.99 8.26,30.46 8.47,30.89 8.66,31.29 8.85,31.68 9.02,32.05 9.19,32.42 9.35,32.80 9.52,33.19 9.68,33.60 9.86,34.04 10.04,34.52 10.23,35.04 10.44,35.62 10.66,36.26 10.91,36.97"/>
    </edge>
    <edge id=":31_0" function="internal">
        <lane id=":31_0_0" index="0" disallow="rail_fast" speed="36.11" length="3.22" width="3.12" shape="20.41,34.77 21.79,37.67"/>
        <lane id=":31_0_1" index="1" disallow="rail_fast" speed="36.11" length="3.22" width="3.06" shape="17.65,36.17 19.04,39.08"/>
        <lane id=":31_0_2" index="2" disallow="rail_fast" speed="36.11" length="3.22" width="2.95" shape="14.96,37.54 16.35,40.45"/>
    </edge>
    <edge id=":32_0" function="internal">
        <lane id=":32_0_0" index="0" disallow="rail_fast" speed="36.11" length="2.64" width="3.14" shape="27.84,50.26 28.99,52.65"/>
        <lane id=":32_0_1" index="1" disallow="rail_fast" speed="36.11" length="2.64" width="3.10" shape="25.04,51.62 26.18,54.01"/>
        <lane id=":32_0_2" index="2" disallow="rail_fast" speed="36.11" length="2.64" width="2.93" shape="22.31,52.94 23.45,55.32"/>
    </edge>
    <edge id=":34_0" function="internal">
        <lane id=":34_0_0" index="0" disallow="rail_fast" speed="36.11" length="3.05" width="2.78" shape="40.53,123.95 39.17,121.22"/>
        <lane id=":34_0_1" index="1" disallow="rail_fast" speed="36.11" length="3.05" width="3.00" shape="43.12,122.69 41.77,119.95"/>
        <lane id=":34_0_2" index="2" disallow="bus rail_fast" speed="36.11" length="3.05" width="3.02" shape="45.85,121.37 44.50,118.63"/>
        <lane id=":34_0_3" index="3" disallow="bus rail_fast" speed="36.11" length="3.05" width="2.96" shape="48.57,120.05 47.22,117.31"/>
        <lane id=":34_0_4" index="4" disallow="rail_fast" speed="36.11" length="3.05" width="3.03" shape="51.29,118.73 49.93,116.00"/>
    </edge>
    <edge id=":35_0" function="internal">
        <lane id=":35_0_0" index="0" disallow="rail_fast" speed="21.96" length="7.43" width="2.94" shape="31.17,105.35 30.91,104.85 30.67,104.41 30.45,104.01 30.24,103.65 30.04,103.33 29.85,103.04 29.66,102.78 29.46,102.54 29.27,102.31 29.06,102.09 28.85,101.87 28.62,101.65 28.38,101.43 28.11,101.19 27.83,100.94 27.52,100.66 27.17,100.35 26.80,100.01 26.39,99.63"/>
        <lane id=":35_0_1" index="1" disallow="rail_fast" speed="36.11" length="7.43" width="2.94" shape="31.17,105.35 27.86,98.79"/>
        <lane id=":35_0_2" index="2" disallow="rail_fast" speed="36.11" length="7.43" width="3.05" shape="33.83,104.00 30.50,97.29"/>
        <lane id=":35_0_3" index="3" disallow="rail_fast" speed="36.11" length="7.43" width="3.03" shape="36.56,102.62 33.16,95.79"/>
        <lane id=":35_0_4" index="4" disallow="rail_fast" speed="36.11" length="7.43" width="3.05" shape="39.29,101.25 35.82,94.28"/>
        <lane id=":35_0_5" index="5" disallow="rail_fast" speed="36.11" length="7.43" width="3.12" shape="42.04,99.86 39.05,93.80"/>
    </edge>
    <edge id=":36_0" function="internal">
        <lane id=":36_0_0" index="0" disallow="rail_fast" speed="15.71" length="3.50" width="3.22" shape="26.01,99.27 25.80,99.08 25.61,98.92 25.43,98.78 25.26,98.65 25.10,98.55 24.95,98.45 24.81,98.36 24.67,98.28 24.54,98.19 24.41,98.11 24.29,98.02 24.17,97.92 24.05,97.82 23.93,97.69 23.82,97.55 23.70,97.39 23.57,97.21 23.45,97.00 23.32,96.75"/>
        <lane id=":36_0_1" index="1" disallow="rail_fast" speed="36.11" length="3.50" width="2.87" shape="27.67,98.41 26.15,95.39"/>
        <lane id=":36_0_2" index="2" disallow="rail_fast" speed="36.11" length="3.50" width="3.00" shape="30.37,97.02 28.90,94.06"/>
        <lane id=":36_0_3" index="3" disallow="rail_fast" speed="36.11" length="3.50" width="3.02" shape="33.08,95.62 31.63,92.72"/>
        <lane id=":36_0_4" index="4" disallow="rail_fast" speed="36.11" length="3.50" width="3.02" shape="35.77,94.19 34.35,91.34"/>
        <lane id=":36_0_5" index="5" disallow="rail_fast" speed="36.11" length="3.50" width="3.03" shape="38.96,93.62 37.13,89.92"/>
    </edge>
    <edge id=":37_0" function="internal">
        <lane id=":37_0_0" index="0" disallow="bus truck rail_fast" speed="36.11" length="4.73" width="3.84" shape="13.78,77.79 13.62,77.48 13.47,77.19 13.35,76.93 13.23,76.70 13.13,76.48 13.03,76.28 12.94,76.09 12.85,75.92 12.77,75.75 12.68,75.59 12.58,75.42 12.48,75.25 12.37,75.08 12.25,74.90 12.11,74.71 11.95,74.50 11.78,74.27 11.58,74.02 11.36,73.75"/>
    </edge>
    <edge id=":37_1" function="internal">
        <lane id=":37_1_0" index="0" disallow="rail_fast" speed="36.11" length="5.10" width="2.87" shape="16.74,76.28 14.44,71.69"/>
        <lane id=":37_1_1" index="1" disallow="rail_fast" speed="36.11" length="5.10" width="3.02" shape="19.39,74.93 17.09,70.38"/>
        <lane id=":37_1_2" index="2" disallow="rail_fast" speed="36.11" length="5.10" width="3.12" shape="22.12,73.53 19.87,69.00"/>
    </edge>
    <edge id=":37_4" function="internal">
        <lane id=":37_4_0" index="0" disallow="bus truck rail_fast" speed="36.11" length="5.03" width="2.93" shape="24.87,72.13 22.62,67.64"/>
    </edge>
    <edge id=":37_5" function="internal">
        <lane id=":37_5_0" index="0" disallow="bus truck rail_fast" speed="36.11" length="4.99" width="3.03" shape="27.58,70.75 25.35,66.28"/>
    </edge>
    <edge id=":38_0" function="internal">
        <lane id=":38_0_0" index="0" disallow="rail_fast" speed="36.11" length="3.02" width="3.06" shape="9.85,62.45 8.51,59.74"/>
        <lane id=":38_0_1" index="1" disallow="rail_fast" speed="36.11" length="3.02" width="2.99" shape="12.57,61.11 11.25,58.40"/>
        <lane id=":38_0_2" index="2" disallow="rail_fast" speed="36.11" length="3.02" width="3.06" shape="15.33,59.76 14.00,57.05"/>
    </edge>
    <edge id=":39_0" function="internal">
        <lane id=":39_0_0" index="0" disallow="rail_fast" speed="36.11" length="1.22" width="3.29" shape="2.54,47.69 3.08,48.78"/>
        <lane id=":39_0_1" index="1" disallow="rail_fast" speed="36.11" length="1.22" width="2.97" shape="5.32,46.26 5.85,47.35"/>
        <lane id=":39_0_2" index="2" disallow="rail_fast" speed="36.11" length="1.22" width="3.01" shape="8.01,44.87 8.55,45.96"/>
    </edge>
    <edge id=":5_0" function="internal">
        <lane id=":5_0_0" index="0" disallow="bus truck rail_fast" speed="8.72" length="16.70" width="3.23" shape="-9.79,54.17 -8.55,53.53 -7.40,52.90 -6.32,52.26 -5.33,51.63 -4.42,51.00 -3.59,50.37 -2.85,49.75 -2.18,49.12 -1.60,48.50 -1.10,47.88 -0.69,47.26 -0.35,46.64 -0.10,46.02 0.07,45.41 0.16,44.79 0.16,44.18 0.08,43.57 -0.08,42.96 -0.32,42.35"/>
    </edge>
    <edge id=":5_1" function="internal">
        <lane id=":5_1_0" index="0" disallow="rail_fast" speed="36.11" length="13.86" width="3.23" shape="-9.79,54.17 2.50,47.82"/>
        <lane id=":5_1_1" index="1" disallow="rail_fast" speed="36.11" length="13.86" width="3.03" shape="-8.41,56.97 3.97,50.68"/>
    </edge>
    <edge id=":5_3" function="internal">
        <lane id=":5_3_0" index="0" disallow="bus truck rail_fast" speed="36.11" length="1.56" width="2.92" shape="-7.05,59.70 -8.45,60.39"/>
    </edge>
    <edge id=":6_0" function="internal">
        <lane id=":6_0_0" index="0" disallow="bus truck rail_fast" speed="9.12" length="13.80" width="3.05" shape="33.92,51.61 33.55,52.04 33.23,52.49 32.95,52.98 32.72,53.49 32.53,54.03 32.40,54.60 32.30,55.19 32.25,55.82 32.25,56.47 32.29,57.16 32.38,57.86 32.51,58.60 32.69,59.37 32.92,60.16 33.19,60.99 33.50,61.84 33.86,62.72 34.27,63.63 34.72,64.56"/>
    </edge>
    <edge id=":6_1" function="internal">
        <lane id=":6_1_0" index="0" disallow="rail_fast" speed="36.11" length="13.06" width="3.05" shape="29.08,52.83 34.72,64.56"/>
        <lane id=":6_1_1" index="1" disallow="rail_fast" speed="36.11" length="13.06" width="2.91" shape="26.26,54.19 31.91,65.97"/>
        <lane id=":6_1_2" index="2" disallow="rail_fast" speed="36.11" length="13.06" width="2.89" shape="23.53,55.50 29.20,67.32"/>
    </edge>
    <edge id=":6_4" function="internal">
        <lane id=":6_4_0" index="0" disallow="bus truck rail_fast" speed="36.11" length="13.55" width="2.89" shape="22.68,55.45 29.20,67.32"/>
    </edge>
    <edge id=":7_0" function="internal">
        <lane id=":7_0_0" index="0" disallow="rail_fast" speed="36.11" length="0.24" width="3.05" shape="45.05,85.82 45.16,86.03"/>
        <lane id=":7_0_1" index="1" disallow="rail_fast" speed="36.11" length="0.24" width="2.91" shape="42.39,87.15 42.49,87.37"/>
        <lane id=":7_0_2" index="2" disallow="rail_fast" speed="36.11" length="0.24" width="2.89" shape="39.79,88.45 39.90,88.68"/>
    </edge>
    <edge id=":8_0" function="internal">
        <lane id=":8_0_0" index="0" disallow="rail_fast" speed="36.11" length="3.05" width="3.03" shape="48.27,92.10 49.65,94.83"/>
        <lane id=":8_0_1" index="1" disallow="rail_fast" speed="36.11" length="3.05" width="3.00" shape="45.55,93.46 46.91,96.19"/>
        <lane id=":8_0_2" index="2" disallow="rail_fast" speed="36.11" length="3.05" width="2.94" shape="42.91,94.78 44.25,97.51"/>
    </edge>
    <edge id=":9_0" function="internal">
        <lane id=":9_0_0" index="0" disallow="bus truck rail_fast" speed="10.11" length="13.46" width="3.16" shape="57.90,111.36 58.34,112.20 58.79,113.00 59.24,113.75 59.70,114.47 60.16,115.14 60.64,115.76 61.12,116.35 61.61,116.89 62.10,117.39 62.60,117.84 63.11,118.26 63.63,118.63 64.15,118.96 64.68,119.24 65.22,119.48 65.77,119.68 66.32,119.84 66.88,119.95 67.45,120.02"/>
    </edge>
    <edge id=":9_1" function="internal">
        <lane id=":9_1_0" index="0" disallow="rail_fast" speed="36.11" length="13.11" width="3.16" shape="57.90,111.36 63.71,123.12"/>
        <lane id=":9_1_1" index="1" disallow="bus rail_fast" speed="36.11" length="13.11" width="2.93" shape="55.12,112.71 60.95,124.46"/>
        <lane id=":9_1_2" index="2" disallow="rail_fast" speed="36.11" length="13.11" width="3.07" shape="52.38,114.05 58.21,125.79"/>
    </edge>

    <edge id="3426" from="34" to="35" priority="1" spreadType="center" length="21.90">
        <lane id="3426_0" index="0" disallow="rail_fast" speed="36.11" length="21.90" width="2.78" customShape="1" shape="39.17,121.22 34.69,112.32 31.17,105.35"/>
        <lane id="3426_1" index="1" disallow="rail_fast" speed="36.11" length="21.90" width="3.00" customShape="1" shape="41.77,119.95 37.35,111.07 33.83,104.00"/>
        <lane id="3426_2" index="2" disallow="rail_fast" speed="36.11" length="21.90" width="3.02" customShape="1" shape="44.50,118.63 40.03,109.64 36.56,102.62"/>
        <lane id="3426_3" index="3" disallow="rail_fast" speed="36.11" length="21.90" width="2.96" customShape="1" shape="47.22,117.31 42.72,108.18 39.29,101.25"/>
        <lane id="3426_4" index="4" disallow="rail_fast" speed="36.11" length="21.90" width="3.03" customShape="1" shape="49.93,116.00 45.44,106.80 42.04,99.86"/>
    </edge>
    <edge id="3438" from="35" to="36" priority="1" spreadType="center" length="8.44">
        <lane id="3438_0" index="0" disallow="rail_fast" speed="36.11" length="8.44" width="2.94" customShape="1" shape="26.39,99.63 26.01,99.27"/>
        <lane id="3438_1" index="1" disallow="rail_fast" speed="36.11" length="8.44" width="2.94" customShape="1" shape="27.86,98.79 27.67,98.41"/>
        <lane id="3438_2" index="2" disallow="rail_fast" speed="36.11" length="8.44" width="3.05" customShape="1" shape="30.50,97.29 30.37,97.02"/>
        <lane id="3438_3" index="3" disallow="rail_fast" speed="36.11" length="8.44" width="3.03" customShape="1" shape="33.16,95.79 33.08,95.62"/>
        <lane id="3438_4" index="4" disallow="rail_fast" speed="36.11" length="8.44" width="3.05" customShape="1" shape="35.82,94.28 35.77,94.19"/>
        <lane id="3438_5" index="5" disallow="rail_fast" speed="36.11" length="8.44" width="3.12" customShape="1" shape="39.05,93.80 38.96,93.62"/>
    </edge>
    <edge id="3450" from="36" to="37" priority="1" spreadType="center" length="24.49">
        <lane id="3450_0" index="0" disallow="rail_fast" speed="36.11" length="24.49" width="3.22" customShape="1" shape="23.32,96.75 20.14,90.49 16.35,82.80 13.78,77.79"/>
        <lane id="3450_1" index="1" disallow="rail_fast" speed="36.11" length="24.49" width="2.87" customShape="1" shape="26.15,95.39 23.14,89.34 19.32,81.39 16.74,76.28"/>
        <lane id="3450_2" index="2" disallow="rail_fast" speed="36.11" length="24.49" width="3.00" customShape="1" shape="28.90,94.06 25.87,88.01 22.02,80.06 19.39,74.93"/>
        <lane id="3450_3" index="3" disallow="rail_fast" speed="36.11" length="24.49" width="3.02" customShape="1" shape="31.63,92.72 28.54,86.56 24.66,78.61 22.12,73.53"/>
        <lane id="3450_4" index="4" disallow="rail_fast" speed="36.11" length="24.49" width="3.02" customShape="1" shape="34.35,91.34 31.23,85.10 27.34,77.16 24.87,72.13"/>
        <lane id="3450_5" index="5" disallow="rail_fast" speed="36.11" length="24.49" width="3.03" customShape="1" shape="37.13,89.92 33.92,83.60 30.04,75.65 27.58,70.75"/>
    </edge>
    <edge id="3456" from="6" to="7" priority="1" spreadType="center" length="24.71">
        <lane id="3456_0" index="0" disallow="rail_fast" speed="36.11" length="24.71" width="3.05" customShape="1" shape="34.72,64.56 37.89,70.90 41.74,78.81 45.05,85.82"/>
        <lane id="3456_1" index="1" disallow="rail_fast" speed="36.11" length="24.71" width="2.91" customShape="1" shape="31.91,65.97 35.32,72.66 39.00,80.23 42.39,87.15"/>
        <lane id="3456_2" index="2" disallow="rail_fast" speed="36.11" length="24.71" width="2.89" customShape="1" shape="29.20,67.32 32.69,74.22 36.48,81.93 39.79,88.45"/>
    </edge>
    <edge id="3462" from="7" to="8" priority="1" spreadType="center" length="8.47">
        <lane id="3462_0" index="0" disallow="rail_fast" speed="36.11" length="8.47" width="3.05" customShape="1" shape="45.16,86.03 48.27,92.10"/>
        <lane id="3462_1" index="1" disallow="rail_fast" speed="36.11" length="8.47" width="2.91" customShape="1" shape="42.49,87.37 45.55,93.46"/>
        <lane id="3462_2" index="2" disallow="rail_fast" speed="36.11" length="8.47" width="2.89" customShape="1" shape="39.90,88.68 42.91,94.78"/>
    </edge>
    <edge id="3468" from="8" to="9" priority="1" spreadType="center" length="22.24">
        <lane id="3468_0" index="0" disallow="rail_fast" speed="36.11" length="22.24" width="3.03" customShape="1" shape="49.65,94.83 53.58,102.78 57.90,111.36"/>
        <lane id="3468_1" index="1" disallow="rail_fast" speed="36.11" length="22.24" width="3.00" customShape="1" shape="46.91,96.19 50.90,104.19 55.12,112.71"/>
        <lane id="3468_2" index="2" disallow="rail_fast" speed="36.11" length="22.24" width="2.94" customShape="1" shape="44.25,97.51 48.21,105.57 52.38,114.05"/>
    </edge>
    <edge id="3498" from="1" to="2" priority="1" spreadType="center" length="9.59">
        <lane id="3498_0" index="0" disallow="rail_fast" speed="36.11" length="9.59" width="4.77" customShape="1" shape="88.91,125.20 79.73,125.51"/>
    </edge>
    <edge id="3500" from="25" to="26" priority="1" spreadType="center" length="9.59">
        <lane id="3500_0" index="0" disallow="rail_fast" speed="36.11" length="9.59" width="5.36" customShape="1" shape="80.55,120.41 88.70,120.14"/>
    </edge>
    <edge id="3509" from="4" to="5" priority="1" spreadType="center" length="15.63">
        <lane id="3509_0" index="0" disallow="rail_fast" speed="36.11" length="15.63" width="3.23" customShape="1" shape="-21.88,60.18 -17.49,58.00 -9.79,54.17"/>
        <lane id="3509_1" index="1" disallow="rail_fast" speed="36.11" length="15.63" width="3.02" customShape="1" shape="-20.49,62.98 -16.06,60.78 -8.41,56.97"/>
        <lane id="3509_2" index="2" disallow="rail_fast" speed="36.11" length="15.63" width="3.06" customShape="1" shape="-19.14,65.70 -14.65,63.48 -7.05,59.70"/>
    </edge>
    <edge id="3517" from="23" to="24" priority="1" spreadType="center" length="14.50">
        <lane id="3517_0" index="0" disallow="rail_fast" speed="36.11" length="14.50" width="5.13" acceleration="1" customShape="1" shape="-2.91,70.50 -10.25,74.03 -13.87,76.00"/>
        <lane id="3517_1" index="1" disallow="rail_fast" speed="36.11" length="14.50" width="3.11" customShape="1" shape="-4.71,66.19 -12.14,70.18 -15.84,72.39"/>
        <lane id="3517_2" index="2" disallow="rail_fast" speed="36.11" length="14.50" width="3.66" customShape="1" shape="-6.01,63.05 -13.67,67.16 -17.46,69.42"/>
    </edge>
    <edge id="3525" from="13" to="14" priority="1" spreadType="center" length="17.28">
        <lane id="3525_0" index="0" disallow="rail_fast" speed="36.11" length="17.28" width="3.87" customShape="1" shape="36.22,26.42 44.78,22.20 51.57,18.86"/>