<routes>
	<vehicle depart="0.1" departLane="2" departPos="16.792439552888457" departSpeed="15.6362" id="2489" type="passenger">
		<route edges="3468 3713"/>
	</vehicle>
	<vehicle depart="0.1" departLane="0" departPos="9.0844295153459" departSpeed="5.9649" id="2532" type="passenger">
		<route edges="3718 3500"/>
	</vehicle>
	<vehicle depart="0.1" departLane="0" departPos="74.28443874208686" departSpeed="8.6502" id="2546" type="passenger">
		<route edges="3542"/>
	</vehicle>
	<vehicle depart="0.1" departLane="0" departPos="54.01652950281243" departSpeed="9.8786" id="2552" type="passenger">
		<route edges="3542"/>
	</vehicle>
	<vehicle depart="0.1" departLane="4" departPos="24.413204429263104" departSpeed="0.0" id="2567" type="passenger">
		<route edges="3450 3664 3525"/>
	</vehicle>
	<vehicle depart="0.1" departLane="0" departPos="0" departSpeed="12.2103" id="2570" type="passenger">
		<route edges="3713"/>
	</vehicle>
	<vehicle depart="0.1" departLane="1" departPos="0" departSpeed="2.283" id="2571" type="passenger">
		<route edges="3555 3559 3568 3680 3525"/>
	</vehicle>
	<vehicle depart="0.1" departLane="3" departPos="33.371840148872145" departSpeed="9.9456" id="2572" type="passenger">
		<route edges="3568 3632 3652 3616 3456 3462 3468 3713"/>
	</vehicle>
	<vehicle depart="0.1" departLane="1" departPos="0" departSpeed="15.6393" id="2575" type="passenger">
		<route edges="3713"/>
	</vehicle>
	<vehicle depart="0.1" departLane="2" departPos="0" departSpeed="14.3347" id="2577" type="passenger">
		<route edges="3468 3713"/>
	</vehicle>
	<vehicle depart="0.1" departLane="0" departPos="0" departSpeed="10.415" id="2580" type="passenger">
		<route edges="3468 3713"/>
	</vehicle>
	<vehicle depart="0.1" departLane="1" departPos="0" departSpeed="14.5176" id="2583" type="passenger">
		<route edges="3468 3713"/>
	</vehicle>
	<vehicle depart="0.1" departLane="4" departPos="17.96774738450967" departSpeed="0.0" id="2585" type="passenger">
		<route edges="3450 3664 3525"/>
	</vehicle>
	<vehicle depart="0.1" departLane="0" departPos="14.289147459536265" departSpeed="12.3871" id="2586" type="passenger">
		<route edges="3456 3462 3468 3713"/>
	</vehicle>
	<vehicle depart="0.1" departLane="1" departPos="0" departSpeed="14.7157" id="2587" type="passenger">
		<route edges="3456 3462 3468 3713"/>
	</vehicle>
	<vehicle depart="0.1" departLane="2" departPos="0" departSpeed="13.3198" id="2600" type="passenger">
		<route edges="3456 3462 3468 3713"/>
	</vehicle>
	<vehicle depart="0.1" departLane="0" departPos="36.99436094270636" departSpeed="11.2532" id="2601" type="passenger">
		<route edges="3672 3616 3672 3456 3462 3468 3713"/>
	</vehicle>
	<vehicle depart="0.1" departLane="0" departPos="24.19746751136553" departSpeed="8.8331" id="2603" type="passenger">
		<route edges="3600 3542"/>
	</vehicle>
	<vehicle depart="0.1" departLane="0" departPos="0" departSpeed="12.4572" id="2604" type="passenger">
		<route edges="3616 3456 3462 3468 3713"/>
	</vehicle>
	<vehicle depart="0.1" departLane="1" departPos="9.901680851440831" departSpeed="11.0399" id="2607" type="passenger">
		<route edges="3652 3616 3456 3462 3468 3713"/>
	</vehicle>
	<vehicle depart="0.1" departLane="0" departPos="0" departSpeed="11.3325" id="2608" type="passenger">
		<route edges="3652 3616 3456 3462 3468 3713"/>
	</vehicle>
	<vehicle depart="0.1" departLane="2" departPos="10.0682714957737" departSpeed="9.8694" id="2609" type="passenger">
		<route edges="3652 3616 3672 3616 3456 3462 3468 3713"/>
	</vehicle>
	<vehicle depart="0.1" departLane="1" departPos="0" departSpeed="11.7653" id="2610" type="passenger">
		<route edges="3542"/>
	</vehicle>
	<vehicle depart="0.1" departLane="1" departPos="21.774444651720213" departSpeed="6.8184" id="2611" type="passenger">
		<route edges="3568 3632 3652 3616 3456 3462 3468 3713"/>
	</vehicle>
	<vehicle depart="0.1" departLane="2" departPos="47.116916666997874" departSpeed="8.3576" id="2612" type="passenger">
		<route edges="3568 3632 3652 3616 3456 3462 3468 3713"/>
	</vehicle>
	<vehicle depart="0.1" departLane="0" departPos="8.154863146816627" departSpeed="10.1651" id="2614" type="passenger">
		<route edges="3646 3626 3542"/>
	</vehicle>
	<vehicle depart="0.1" departLane="2" departPos="31.56220420753915" departSpeed="7.8059" id="2615" type="passenger">
		<route edges="3568 3632 3652 3616 3456 3462 3468 3713"/>
	</vehicle>
	<vehicle depart="0.1" departLane="1" departPos="0" departSpeed="4.5629" id="2616" type="passenger">
		<route edges="3568 3632 3652 3616 3456 3462 3468 3713"/>
	</vehicle>
	<vehicle depart="0.1" departLane="1" departPos="14.348509864209124" departSpeed="3.2949" id="2622" type="passenger">
		<route edges="3559 3568 3632 3652 3616 3456 3462 3468 3713"/>
	</vehicle>
	<vehicle depart="0.1" departLane="2" departPos="0" departSpeed="8.76" id="2624" type="passenger">
		<route edges="3632 3652 3616 3672 3616 3456 3462 3468 3713"/>
	</vehicle>
	<vehicle depart="0.1" departLane="1" departPos="0" departSpeed="2.283" id="2628" type="passenger">
		<route edges="3559 3568 3632 3652 3616 3456 3462 3468 3713"/>
	</vehicle>
	<vehicle depart="0.1" departLane="2" departPos="0" departSpeed="5.1877" id="2630" type="passenger">
		<route edges="3568 3632 3652 3616 3456 3456 3462 3468 3713"/>
	</vehicle>
	<vehicle depart="0.1" departLane="2" departPos="5.593643294345508" departSpeed="3.9441" id="2636" type="passenger">
		<route edges="3555 3559 3568 3632 3652 3616 3456 3462 3468 3713"/>
	</vehicle>
	<vehicle depart="0.1" departLane="0" departPos="18.199972804996875" departSpeed="5.8674" id="2642" type="passenger">
		<route edges="3680 3525"/>
	</vehicle>
	<vehicle depart="0.1" departLane="0" departPos="0" departSpeed="0.0" id="2647" type="passenger">
		<route edges="3620 3662 3640 3517"/>
	</vehicle>
	<vehicle depart="0.1" departLane="0" departPos="4.923175234736006" departSpeed="4.0965" id="2648" type="passenger">
		<route edges="3680 3680 3525"/>
	</vehicle>
	<vehicle depart="0.1" departLane="2" departPos="0" departSpeed="11.8781" id="2649" type="passenger">
		<route edges="3610 3646 3626 3542"/>
	</vehicle>
	<vehicle depart="0.1" departLane="2" departPos="0" departSpeed="4.3983" id="2650" type="passenger">
		<route edges="3559 3568 3632 3652 3616 3456 3462 3468 3713"/>
	</vehicle>
	<vehicle depart="0.1" departLane="1" departPos="0" departSpeed="12.6187" id="2652" type="passenger">
		<route edges="3626 3542 3542"/>
	</vehicle>
	<vehicle depart="0.1" departLane="4" departPos="8.493302885950792" departSpeed="3.1547" id="2653" type="passenger">
		<route edges="3438 3450 3664 3525"/>
	</vehicle>
	<vehicle depart="0.1" departLane="3" departPos="0" departSpeed="6.5806" id="2654" type="passenger">
		<route edges="3568 3632 3652 3616 3672 3616 3456 3462 3468 3713"/>
	</vehicle>
	<vehicle depart="0.1" departLane="1" departPos="22.755840681353348" departSpeed="11.4056" id="2656" type="passenger">
		<route edges="3450 3610 3646 3626 3600 3626 3542"/>
	</vehicle>
	<vehicle depart="0.1" departLane="4" departPos="0" departSpeed="0.0" id="2657" type="passenger">
		<route edges="3450 3664 3525"/>
	</vehicle>
	<vehicle depart="0.1" departLane="1" departPos="4.958538361971925" departSpeed="12.0457" id="2658" type="passenger">
		<route edges="3438 3450 3610 3646 3626 3600 3626 3542"/>
	</vehicle>
	<vehicle depart="0.1" departLane="2" departPos="34.63230605683384" departSpeed="14.0635" id="2659" type="passenger">
		<route edges="3542 3542"/>
	</vehicle>
	<vehicle depart="0.1" departLane="1" departPos="13.56579641976468" departSpeed="12.445" id="2660" type="passenger">
		<route edges="3610 3646 3626 3542"/>
	</vehicle>
	<vehicle depart="0.1" departLane="0" departPos="0" departSpeed="12.9266" id="2662" type="passenger">
		<route edges="3426 3438 3450 3610 3646 3626 3600 3542"/>
	</vehicle>
	<vehicle depart="0.1" departLane="3" departPos="5.7516545882779555" departSpeed="11.3203" id="2663" type="passenger">
		<route edges="3438 3450 3610 3646 3626 3542"/>
	</vehicle>
	<vehicle depart="0.1" departLane="1" departPos="13.546382422015304" departSpeed="9.9304" id="2666" type="passenger">
		<route edges="3450 3610 3646 3626 3600 3542"/>
	</vehicle>
	<vehicle depart="0.1" departLane="3" departPos="0" departSpeed="9.4915" id="2667" type="passenger">
		<route edges="3426 3438 3450 3664 3525"/>
	</vehicle>
	<vehicle depart="0.1" departLane="0" departPos="0" departSpeed="12.5882" id="2668" type="passenger">
		<route edges="3705 3426 3438 3450 3610 3646 3626 3600 3626 3600 3542"/>
	</vehicle>
	<vehicle depart="0.1" departLane="1" departPos="20.10153242923214" departSpeed="14.5481" id="2670" type="passenger">
		<route edges="3426 3438 3450 3610 3646 3626 3542"/>
	</vehicle>
	<vehicle depart="0.1" departLane="4" departPos="20.714318651220367" departSpeed="13.1308" id="2671" type="passenger">
		<route edges="3705 3426 3438 3450 3664 3525"/>
	</vehicle>
	<vehicle depart="0.1" departLane="1" departPos="0" departSpeed="0.0" id="2677" type="passenger">
		<route edges="3536 3620 3662 3640 3517"/>
	</vehicle>
	<vehicle depart="0.1" departLane="3" departPos="0" departSpeed="3.0541" id="2717" type="passenger">
		<route edges="3559 3568 3632 3652 3672 3616 3456 3462 3468 3713"/>
	</vehicle>
	<vehicle depart="0.1" departLane="3" departPos="5.732237153246873" departSpeed="2.7889" id="2726" type="passenger">
		<route edges="3555 3559 3568 3632 3652 3616 3456 3462 3468 3713"/>
	</vehicle>
</routes>
