<?xml version="1.0" encoding="UTF-8"?>

<!-- generated on Fri Dec 18 15:55:06 2020 by Eclipse SUMO netconvert Version 1.8.0
<configuration xmlns:xsi="http://www.w3.org/2001/XMLSchema-instance" xsi:noNamespaceSchemaLocation="http://sumo.dlr.de/xsd/netconvertConfiguration.xsd">

    <input>
        <node-files value="./converted_scenarios/NGSIM/US101/USA_US101-12_3_I-1-1/nodes.net.xml"/>
        <edge-files value="./converted_scenarios/NGSIM/US101/USA_US101-12_3_I-1-1/edges.net.xml"/>
        <connection-files value="./converted_scenarios/NGSIM/US101/USA_US101-12_3_I-1-1/_connections.net.xml"/>
        <tllogic-files value="./converted_scenarios/NGSIM/US101/USA_US101-12_3_I-1-1/_tll.net.xml"/>
    </input>

    <output>
        <output-file value="./converted_scenarios/NGSIM/US101/USA_US101-12_3_I-1-1/USA_US101-12_3_I-1-1.net.xml"/>
    </output>

    <processing>
        <plain.extend-edge-shape value="true"/>
        <geometry.remove.keep-edges.explicit value="true"/>
        <geometry.avoid-overlap value="true"/>
        <offset.disable-normalization value="true"/>
    </processing>

    <junctions>
        <no-turnarounds value="true"/>
        <junctions.internal-link-detail value="20"/>
    </junctions>

    <report>
        <aggregate-warnings value="5"/>
    </report>

    <random_number>
        <seed value="1234"/>
    </random_number>

</configuration>
-->

<net version="1.6" junctionCornerDetail="5" junctionLinkDetail="20" limitTurnSpeed="5.50" xmlns:xsi="http://www.w3.org/2001/XMLSchema-instance" xsi:noNamespaceSchemaLocation="http://sumo.dlr.de/xsd/net_file.xsd">

    <location netOffset="0.00,0.00" convBoundary="-38.04,-84.38,92.70,25.48" origBoundary="-38.04,-91.02,98.34,30.44" projParameter="!"/>

    <edge id=":2_0" function="internal">
        <lane id=":2_0_0" index="0" disallow="rail_fast" speed="36.11" length="29.91" width="3.74" shape="15.41,-28.88 38.17,-48.29"/>
    </edge>
    <edge id=":2_1" function="internal">
        <lane id=":2_1_0" index="0" disallow="bus truck rail_fast" speed="36.11" length="3.00" width="3.50" shape="38.36,-43.49 40.62,-45.46"/>
        <lane id=":2_1_1" index="1" disallow="bus truck rail_fast" speed="36.11" length="3.00" width="3.22" shape="40.64,-40.86 42.87,-42.88"/>
        <lane id=":2_1_2" index="2" disallow="bus rail_fast" speed="36.11" length="3.00" width="3.12" shape="42.84,-38.34 45.06,-40.36"/>
        <lane id=":2_1_3" index="3" disallow="bus truck rail_fast" speed="36.11" length="3.00" width="3.27" shape="45.03,-35.82 47.30,-37.78"/>
        <lane id=":2_1_4" index="4" disallow="bus truck rail_fast" speed="36.11" length="3.00" width="3.48" shape="47.24,-33.27 49.54,-35.21"/>
    </edge>

    <edge id="12" from="1" to="2" priority="1" spreadType="center" length="95.70">
        <lane id="12_0" index="0" disallow="bus truck rail_fast" speed="36.11" length="95.70" width="3.45" customShape="1" shape="-31.53,20.66 -24.75,14.21 -21.91,11.44 -14.41,4.44 -11.57,1.67 -7.03,-2.57 -3.51,-5.82 -0.61,-8.51 7.20,-15.63 7.78,-16.17 10.14,-18.34 17.45,-24.95 18.25,-25.69 21.17,-28.40 24.23,-31.15 29.05,-35.32 31.99,-37.97 33.54,-39.31 38.36,-43.49"/>
        <lane id="12_1" index="1" disallow="bus rail_fast" speed="36.11" length="95.70" width="3.25" customShape="1" shape="-29.09,23.11 -24.64,18.92 -22.34,16.68 -21.84,16.18 -19.58,13.99 -14.07,8.87 -12.02,6.90 -11.28,6.16 -9.28,4.25 -3.28,-1.25 -1.13,-3.25 -0.37,-3.95 1.75,-5.91 7.41,-11.04 9.61,-13.06 10.30,-13.71 12.48,-15.69 18.61,-21.21 20.68,-23.11 21.51,-23.88 23.54,-25.73 29.37,-30.85 31.40,-32.69 32.25,-33.48 34.25,-35.29 40.37,-40.61 40.64,-40.86"/>
        <lane id="12_2" index="2" disallow="rail_fast" speed="36.11" length="95.70" width="3.19" customShape="1" shape="-26.71,25.49 -25.42,24.24 -22.34,21.34 -19.53,18.61 -17.66,16.85 -14.82,14.09 -11.83,11.31 -9.02,8.60 -6.76,6.53 -3.90,3.80 -1.03,1.20 1.87,-1.46 4.48,-3.83 7.39,-6.52 9.64,-8.56 12.54,-11.23 15.27,-13.69 18.20,-16.36 20.84,-18.73 23.74,-21.38 26.31,-23.68 29.24,-26.34 31.50,-28.31 34.43,-30.91 37.19,-33.30 40.13,-35.95 42.57,-38.10 42.84,-38.34"/>
        <lane id="12_3" index="3" disallow="bus truck rail_fast" speed="36.11" length="95.70" width="3.21" customShape="1" shape="-24.34,27.86 -23.12,26.63 -22.87,26.39 -15.36,19.33 -15.20,19.17 -12.51,16.48 -12.30,16.29 -4.48,9.00 -1.68,6.29 -1.50,6.12 6.49,-1.13 6.75,-1.37 9.37,-3.81 9.63,-4.05 17.34,-11.08 17.51,-11.24 20.22,-13.77 20.36,-13.89 28.37,-21.06 28.54,-21.22 31.24,-23.74 31.36,-23.85 39.40,-30.77 39.48,-30.85 42.34,-33.50 42.46,-33.61 45.03,-35.82"/>
        <lane id="12_4" index="4" disallow="bus rail_fast" speed="36.11" length="95.70" width="3.48" customShape="1" shape="-21.92,30.28 -20.49,28.84 -20.24,28.61 -12.75,21.62 -12.55,21.43 -9.90,18.78 -9.66,18.55 -2.03,11.40 -1.75,11.13 0.86,8.70 1.16,8.42 8.81,1.42 9.10,1.16 11.72,-1.29 12.02,-1.57 19.64,-8.56 19.93,-8.83 22.55,-11.27 22.87,-11.56 30.65,-18.50 30.94,-18.77 33.58,-21.23 33.92,-21.53 41.77,-28.39 42.06,-28.65 44.71,-31.12 45.08,-31.44 47.24,-33.27"/>
    </edge>
    <edge id="8" from="2" to="3" priority="1" spreadType="center" length="66.34">
        <lane id="8_0" index="0" disallow="rail_fast" speed="36.11" length="66.34" width="3.74" acceleration="1" customShape="1" shape="38.17,-48.29 39.19,-49.16 39.91,-49.80 42.58,-52.12 43.30,-52.76 46.01,-55.14 46.73,-55.79 49.45,-58.18 50.17,-58.82 52.84,-61.14 53.56,-61.78 54.29,-62.41 56.29,-64.16 57.02,-64.80 59.70,-67.16 60.42,-67.81 63.18,-70.21 63.90,-70.86 66.47,-73.08 67.19,-73.73 69.91,-76.06 70.63,-76.71 73.48,-79.22 74.20,-79.86 76.86,-82.22 77.58,-82.86 80.39,-85.28 81.12,-85.93 83.75,-88.23 84.47,-88.88 86.92,-91.02"/>
        <lane id="8_1" index="1" disallow="bus truck rail_fast" speed="36.11" length="66.34" width="3.50" customShape="1" shape="40.62,-45.46 41.68,-46.40 42.39,-47.06 43.03,-47.63 44.87,-49.15 45.53,-49.71 45.64,-49.80 46.23,-50.30 46.41,-50.46 48.51,-52.36 49.23,-53.02 49.32,-53.10 51.88,-55.36 52.56,-55.96 55.29,-58.33 55.96,-58.93 56.49,-59.39 58.76,-61.43 59.40,-62.02 65.56,-67.32 66.23,-67.91 66.33,-67.99 67.24,-68.76 68.97,-70.31 69.68,-70.97 70.20,-71.42 72.35,-73.26 73.01,-73.84 75.89,-76.37 76.58,-76.99 78.24,-78.45 79.35,-79.46 80.06,-80.12 81.22,-81.14 82.81,-82.50 83.46,-83.07 86.15,-85.41 86.82,-86.00 89.22,-88.07 89.37,-88.20"/>
        <lane id="8_2" index="2" disallow="bus truck rail_fast" speed="36.11" length="66.34" width="3.22" customShape="1" shape="42.87,-42.88 43.25,-43.24 45.13,-44.91 45.29,-45.04 48.66,-47.81 51.19,-50.05 51.29,-50.15 51.66,-50.49 54.29,-52.86 58.75,-56.70 61.62,-59.26 61.73,-59.36 62.37,-59.91 62.45,-59.98 65.35,-62.54 69.53,-66.10 72.38,-68.64 72.47,-68.72 73.48,-69.59 76.43,-72.24 80.54,-75.77 83.40,-78.31 83.51,-78.41 84.62,-79.36 87.58,-82.01 91.54,-85.48 91.66,-85.58"/>
        <lane id="8_3" index="3" disallow="bus rail_fast" speed="36.11" length="66.34" width="3.12" customShape="1" shape="45.06,-40.36 45.43,-40.69 45.53,-40.78 48.41,-43.26 51.37,-45.89 53.50,-47.69 56.34,-50.21 56.46,-50.31 59.47,-52.88 62.43,-55.51 64.57,-57.36 67.43,-59.95 67.52,-60.03 70.59,-62.68 73.54,-65.32 75.58,-67.05 78.44,-69.56 78.58,-69.67 81.71,-72.31 84.67,-74.95 86.84,-76.81 89.69,-79.38 92.94,-82.25 93.85,-83.07"/>
        <lane id="8_4" index="4" disallow="bus truck rail_fast" speed="36.11" length="66.34" width="3.27" customShape="1" shape="47.30,-37.78 50.48,-40.53 50.68,-40.71 53.35,-43.20 53.54,-43.36 61.68,-50.30 61.85,-50.46 64.63,-53.05 64.79,-53.19 72.80,-60.07 75.66,-62.73 83.91,-69.78 84.03,-69.89 86.84,-72.51 86.97,-72.63 95.12,-79.63 95.24,-79.73 96.08,-80.52"/>
        <lane id="8_5" index="5" disallow="bus truck rail_fast" speed="36.11" length="66.34" width="3.48" customShape="1" shape="49.54,-35.21 52.74,-37.91 52.98,-38.11 53.10,-38.23 55.71,-40.66 56.07,-40.97 64.14,-47.90 64.38,-48.11 64.48,-48.21 67.09,-50.64 67.46,-50.96 75.09,-57.40 75.33,-57.60 75.45,-57.71 78.06,-60.14 78.40,-60.45 86.29,-67.38 86.55,-67.61 86.63,-67.68 89.23,-70.11 89.59,-70.43 97.36,-77.02 97.60,-77.22 97.72,-77.33 98.35,-77.92"/>
    </edge>
    <edge id="9" from="4" to="2" priority="1" spreadType="center" length="96.54">
        <lane id="9_0" index="0" disallow="rail_fast" speed="36.11" length="96.54" width="3.64" customShape="1" shape="-38.04,13.35 -35.97,12.01 -34.90,11.28 -29.22,7.13 -27.85,6.08 -19.89,-0.02 -13.45,-5.16 -8.32,-9.33 -0.60,-15.62 1.04,-16.97 9.60,-24.08 15.41,-28.88"/>
    </edge>

    <junction id="1" type="dead_end" x="-26.72" y="25.48" incLanes="" intLanes="" shape="-20.69,31.51 -32.75,19.44"/>
    <junction id="2" type="priority" x="43.96" y="-39.36" incLanes="9_0 12_0 12_1 12_2 12_3 12_4" intLanes=":2_0_0 :2_1_0 :2_1_1 :2_1_2 :2_1_3 :2_1_4" shape="50.68,-33.89 36.95,-49.70 14.22,-30.26 16.61,-27.51 37.22,-44.80 48.39,-31.96">
        <request index="0" response="000000" foes="000000" cont="0"/>
        <request index="1" response="000000" foes="000000" cont="0"/>
        <request index="2" response="000000" foes="000000" cont="0"/>
        <request index="3" response="000000" foes="000000" cont="0"/>
        <request index="4" response="000000" foes="000000" cont="0"/>
        <request index="5" response="000000" foes="000000" cont="0"/>
    </junction>
    <junction id="3" type="dead_end" x="92.70" y="-84.38" incLanes="8_0 8_1 8_2 8_3 8_4 8_5" intLanes="" shape="85.68,-92.42 99.50,-76.61"/>
    <junction id="4" type="dead_end" x="-38.04" y="13.35" incLanes="" intLanes="" shape="-37.05,14.88 -39.02,11.82"/>

    <connection from="12" to="8" fromLane="0" toLane="1" contPos="-4.00" via=":2_1_0" dir="s" state="M"/>
    <connection from="12" to="8" fromLane="1" toLane="2" contPos="-4.00" via=":2_1_1" dir="s" state="M"/>
    <connection from="12" to="8" fromLane="2" toLane="3" contPos="-4.00" via=":2_1_2" dir="s" state="M"/>
    <connection from="12" to="8" fromLane="3" toLane="4" contPos="-4.00" via=":2_1_3" dir="s" state="M"/>
    <connection from="12" to="8" fromLane="4" toLane="5" contPos="-4.00" via=":2_1_4" dir="s" state="M"/>
    <connection from="9" to="8" fromLane="0" toLane="0" contPos="-4.00" via=":2_0_0" dir="s" state="M"/>

    <connection from=":2_0" to="8" fromLane="0" toLane="0" dir="s" state="M"/>
    <connection from=":2_1" to="8" fromLane="0" toLane="1" dir="s" state="M"/>
    <connection from=":2_1" to="8" fromLane="1" toLane="2" dir="s" state="M"/>
    <connection from=":2_1" to="8" fromLane="2" toLane="3" dir="s" state="M"/>
    <connection from=":2_1" to="8" fromLane="3" toLane="4" dir="s" state="M"/>
    <connection from=":2_1" to="8" fromLane="4" toLane="5" dir="s" state="M"/>

</net>
