<routes>
	<vehicle depart="0.1" departLane="0" departPos="18.344361366323895" departSpeed="0.91255708" id="316" type="passenger">
		<route edges=":65_2 31184"/>
	</vehicle>
	<vehicle depart="0.1" departLane="0" departPos="37.95433480134504" departSpeed="0.51074593" id="317" type="passenger">
		<route edges=":66_5 31181 31640"/>
	</vehicle>
	<vehicle depart="0.1" departLane="0" departPos="101.50747362202475" departSpeed="0.0" id="326" type="passenger">
		<route edges="31872 31185"/>
	</vehicle>
	<vehicle depart="0.1" departLane="0" departPos="18.79216291618001" departSpeed="1.132694" id="339" type="passenger">
		<route edges=":66_5 31181"/>
	</vehicle>
	<vehicle depart="0.1" departLane="0" departPos="25.7421290488118" departSpeed="11.221121" id="341" type="passenger">
		<route edges=":66_1 31871 31868"/>
	</vehicle>
	<vehicle depart="0.1" departLane="0" departPos="12.582192309706768" departSpeed="8.9846774" id="342" type="passenger">
		<route edges="31182 31185"/>
	</vehicle>
	<vehicle depart="0.1" departLane="0" departPos="6.141030145501555" departSpeed="0.85603828" id="351" type="passenger">
		<route edges=":66_4 31871"/>
	</vehicle>
	<vehicle depart="0.1" departLane="0" departPos="26.96984465979364" departSpeed="1.4146003" id="354" type="passenger">
		<route edges="31184 31181"/>
	</vehicle>
	<vehicle depart="0.1" departLane="0" departPos="15.600444325304279" departSpeed="2.1386254" id="356" type="passenger">
		<route edges="31184 31181"/>
	</vehicle>
	<vehicle depart="0.1" departLane="0" departPos="9.8291976197178" departSpeed="1.6040153" id="361" type="passenger">
		<route edges="31184 31181"/>
	</vehicle>
</routes>
