<!-- generated on Tue Feb  9 22:08:33 2021 by Eclipse SUMO netconvert Version 1.8.0
<configuration xmlns:xsi="http://www.w3.org/2001/XMLSchema-instance" xsi:noNamespaceSchemaLocation="http://sumo.dlr.de/xsd/netconvertConfiguration.xsd">

    <input>
        <node-files value="./converted_scenarios/scenario-factory/DEU_Ibbenbueren-5_2_I-1-1/DEU_Ibbenbueren-5_2_I-1-1.nod.xml"/>
        <edge-files value="./converted_scenarios/scenario-factory/DEU_Ibbenbueren-5_2_I-1-1/DEU_Ibbenbueren-5_2_I-1-1.edg.xml"/>
        <connection-files value="./converted_scenarios/scenario-factory/DEU_Ibbenbueren-5_2_I-1-1/DEU_Ibbenbueren-5_2_I-1-1.con.xml"/>
        <tllogic-files value="./converted_scenarios/scenario-factory/DEU_Ibbenbueren-5_2_I-1-1/DEU_Ibbenbueren-5_2_I-1-1.tll.xml"/>
        <type-files value="/home/zen/commonroad-interactive-benchmarks/install/commonroad-map-tool/crmapconverter/sumo_map/templates/DEU.typ.xml"/>
    </input>

    <output>
        <output-file value="./converted_scenarios/scenario-factory/DEU_Ibbenbueren-5_2_I-1-1/DEU_Ibbenbueren-5_2_I-1-1.net.xml"/>
    </output>

    <processing>
        <geometry.remove.keep-edges.explicit value="true"/>
        <geometry.avoid-overlap value="true"/>
        <offset.disable-normalization value="true"/>
    </processing>

    <junctions>
        <no-turnarounds value="true"/>
        <junctions.internal-link-detail value="20"/>
    </junctions>

    <report>
        <aggregate-warnings value="5"/>
    </report>

    <random_number>
        <seed value="1234"/>
    </random_number>

</configuration>
--><net xmlns:xsi="http://www.w3.org/2001/XMLSchema-instance" version="1.6" junctionCornerDetail="5" junctionLinkDetail="20" limitTurnSpeed="5.50" xsi:noNamespaceSchemaLocation="http://sumo.dlr.de/xsd/net_file.xsd">

    <location netOffset="0.00,0.00" convBoundary="-367.54,508.28,-83.19,848.50" origBoundary="-367.54,508.28,-83.19,848.50" projParameter="!"/>

    <type id="highway.bridleway" priority="1" speed="2.78" allow="pedestrian" oneway="1" width="2.00"/>
    <type id="highway.bus_guideway" priority="1" speed="27.78" allow="bus" oneway="1"/>
    <type id="highway.cycleway" priority="1" speed="8.33" allow="bicycle" oneway="0" width="1.00"/>
    <type id="highway.footway" priority="1" speed="2.78" allow="pedestrian" oneway="1" width="2.00"/>
    <type id="highway.ford" priority="1" speed="2.78" allow="army" oneway="0"/>
    <type id="highway.living_street" priority="2" speed="2.78" disallow="tram rail_urban rail rail_electric rail_fast ship" oneway="0"/>
    <type id="highway.motorway" priority="14" speed="39.44" allow="private emergency authority army vip passenger hov taxi bus coach delivery truck trailer motorcycle evehicle custom1 custom2" oneway="1"/>
    <type id="highway.motorway_link" priority="9" speed="22.22" allow="private emergency authority army vip passenger hov taxi bus coach delivery truck trailer motorcycle evehicle custom1 custom2" oneway="1"/>
    <type id="highway.path" priority="1" speed="2.78" allow="pedestrian bicycle" oneway="0" width="2.00"/>
    <type id="highway.pedestrian" priority="1" speed="2.78" allow="pedestrian" oneway="1" width="2.00"/>
    <type id="highway.primary" priority="12" speed="27.78" disallow="pedestrian tram rail_urban rail rail_electric rail_fast ship" oneway="0"/>
    <type id="highway.primary_link" priority="7" speed="22.22" disallow="pedestrian tram rail_urban rail rail_electric rail_fast ship" oneway="0"/>
    <type id="highway.raceway" priority="15" speed="83.33" allow="vip" oneway="0"/>
    <type id="highway.residential" priority="3" speed="13.89" disallow="pedestrian tram rail_urban rail rail_electric rail_fast ship" oneway="0"/>
    <type id="highway.secondary" priority="11" speed="27.78" disallow="pedestrian tram rail_urban rail rail_electric rail_fast ship" oneway="0"/>
    <type id="highway.secondary_link" priority="6" speed="22.22" disallow="pedestrian tram rail_urban rail rail_electric rail_fast ship" oneway="0"/>
    <type id="highway.service" priority="1" speed="5.56" allow="pedestrian delivery bicycle" oneway="0"/>
    <type id="highway.stairs" priority="1" speed="1.39" allow="pedestrian" oneway="1" width="2.00"/>
    <type id="highway.step" priority="1" speed="1.39" allow="pedestrian" oneway="1" width="2.00"/>
    <type id="highway.steps" priority="1" speed="1.39" allow="pedestrian" oneway="1" width="2.00"/>
    <type id="highway.tertiary" priority="10" speed="22.22" disallow="pedestrian tram rail_urban rail rail_electric rail_fast ship" oneway="0"/>
    <type id="highway.tertiary_link" priority="5" speed="22.22" disallow="pedestrian tram rail_urban rail rail_electric rail_fast ship" oneway="0"/>
    <type id="highway.track" priority="1" speed="5.56" allow="pedestrian motorcycle moped bicycle" oneway="0"/>
    <type id="highway.trunk" priority="13" speed="27.78" disallow="pedestrian bicycle tram rail_urban rail rail_electric rail_fast ship" oneway="0"/>
    <type id="highway.trunk_link" priority="8" speed="22.22" disallow="pedestrian bicycle tram rail_urban rail rail_electric rail_fast ship" oneway="0"/>
    <type id="highway.unclassified" priority="4" speed="13.89" disallow="pedestrian tram rail_urban rail rail_electric rail_fast ship" oneway="0"/>
    <type id="highway.unsurfaced" priority="1" speed="8.33" disallow="tram rail_urban rail rail_electric rail_fast ship" oneway="0"/>
    <type id="railway.highspeed" priority="21" speed="69.44" allow="rail_fast" oneway="1"/>
    <type id="railway.light_rail" priority="19" speed="27.78" allow="rail_urban" oneway="1"/>
    <type id="railway.preserved" priority="16" speed="27.78" allow="rail" oneway="1"/>
    <type id="railway.rail" priority="20" speed="44.44" allow="rail" oneway="1"/>
    <type id="railway.subway" priority="18" speed="27.78" allow="rail_urban" oneway="1"/>
    <type id="railway.tram" priority="17" speed="13.89" allow="tram" oneway="1"/>

    <edge id=":26_0" function="internal">
        <lane id=":26_0_0" index="0" disallow="pedestrian tram rail_urban rail rail_electric rail_fast ship" speed="36.11" length="0.41" width="3.48" shape="-142.46,614.40 -142.43,614.38 -142.41,614.37 -142.39,614.36 -142.37,614.35 -142.35,614.34 -142.33,614.33 -142.32,614.33 -142.30,614.32 -142.29,614.32 -142.27,614.31 -142.26,614.30 -142.24,614.30 -142.22,614.30 -142.21,614.29 -142.19,614.29 -142.16,614.28 -142.14,614.27 -142.11,614.27 -142.09,614.26"/>
    </edge>
    <edge id=":37_0" function="internal">
        <lane id=":37_0_0" index="0" disallow="pedestrian tram rail_urban rail rail_electric rail_fast ship" speed="36.11" length="2.85" width="3.50" shape="-118.20,615.38 -115.36,615.58"/>
    </edge>
    <edge id=":63_0" function="internal">
        <lane id=":63_0_0" index="0" disallow="pedestrian tram rail_urban rail rail_electric rail_fast ship" speed="11.84" length="27.50" width="3.50" shape="-168.39,663.69 -170.54,661.19 -172.08,659.72 -173.74,658.41 -175.52,657.31 -177.40,656.45 -179.37,655.85 -181.40,655.54 -183.47,655.50 -185.55,655.72 -187.62,656.18 -189.64,656.83 -192.65,658.15"/>
    </edge>
    <edge id=":63_1" function="internal">
        <lane id=":63_1_0" index="0" disallow="pedestrian tram rail_urban rail rail_electric rail_fast ship" speed="32.01" length="25.75" width="3.49" shape="-168.39,663.69 -169.70,661.97 -174.00,655.97 -176.85,651.48 -178.93,647.72 -180.28,644.72 -181.33,641.59"/>
    </edge>
    <edge id=":63_2" function="internal">
        <lane id=":63_2_0" index="0" disallow="pedestrian tram rail_urban rail rail_electric rail_fast ship" speed="28.90" length="24.32" width="3.50" shape="-177.95,640.70 -176.98,643.56 -175.71,646.33 -173.74,649.88 -171.01,654.15 -166.87,659.91 -165.64,661.53"/>
    </edge>
    <edge id=":63_3" function="internal">
        <lane id=":63_3_0" index="0" disallow="pedestrian tram rail_urban rail rail_electric rail_fast ship" speed="11.40" length="24.55" width="3.50" shape="-177.95,640.70 -177.72,642.12 -177.74,643.60 -178.01,645.04 -178.49,646.38 -179.12,647.60 -179.85,648.72 -180.69,649.77 -182.45,651.56 -184.37,653.15 -186.38,654.57 -189.46,656.45 -192.65,658.15"/>
    </edge>
    <edge id=":63_4" function="internal">
        <lane id=":63_4_0" index="0" disallow="pedestrian tram rail_urban rail rail_electric rail_fast ship" speed="10.19" length="19.81" width="3.49" shape="-194.22,655.02 -191.43,653.55 -188.74,651.95 -187.00,650.78 -185.35,649.50 -183.82,648.08 -183.12,647.30 -182.49,646.47 -181.95,645.58 -181.53,644.62 -181.26,643.61 -181.20,642.57 -181.33,641.59"/>
    </edge>
    <edge id=":63_5" function="internal">
        <lane id=":63_5_0" index="0" disallow="pedestrian tram rail_urban rail rail_electric rail_fast ship" speed="12.81" length="32.34" width="3.50" shape="-194.22,655.02 -190.78,653.52 -188.42,652.75 -185.99,652.22 -183.52,651.96 -181.03,652.01 -178.58,652.39 -176.20,653.11 -173.94,654.14 -171.82,655.45 -169.87,656.98 -168.07,658.70 -165.64,661.53"/>
    </edge>
    <edge id=":64_0" function="internal">
        <lane id=":64_0_0" index="0" disallow="pedestrian tram rail_urban rail rail_electric rail_fast ship" speed="36.11" length="39.13" width="3.50" shape="-287.03,567.44 -296.44,545.67 -302.35,531.44"/>
    </edge>
    <edge id=":64_1" function="internal">
        <lane id=":64_1_0" index="0" disallow="pedestrian tram rail_urban rail rail_electric rail_fast ship" speed="12.27" length="34.59" width="3.50" shape="-287.03,567.44 -288.03,564.95 -288.82,562.41 -289.37,559.81 -289.60,557.16 -289.58,555.83 -289.46,554.51 -289.23,553.20 -288.89,551.91 -288.44,550.66 -287.88,549.45 -287.22,548.30 -286.47,547.20 -284.72,545.20 -282.73,543.44 -280.56,541.91 -278.26,540.57 -275.87,539.41"/>
    </edge>
    <edge id=":64_2" function="internal">
        <lane id=":64_2_0" index="0" disallow="pedestrian tram rail_urban rail rail_electric rail_fast ship" speed="11.27" length="29.02" width="3.50" shape="-274.44,542.61 -276.53,543.62 -278.52,544.77 -280.38,546.08 -282.05,547.55 -283.51,549.23 -284.11,550.09 -284.64,551.03 -285.09,551.99 -285.46,553.00 -285.73,554.03 -285.92,555.09 -286.02,556.17 -286.04,557.23 -285.85,559.47 -285.38,561.67 -284.70,563.86 -283.83,566.03"/>
    </edge>
    <edge id=":64_3" function="internal">
        <lane id=":64_3_0" index="0" disallow="pedestrian tram rail_urban rail rail_electric rail_fast ship" speed="36.11" length="39.07" width="3.50" shape="-299.13,530.08 -293.21,544.31 -283.83,566.03"/>
    </edge>
    <edge id=":65_0" function="internal">
        <lane id=":65_0_0" index="0" disallow="pedestrian tram rail_urban rail rail_electric rail_fast ship" speed="36.11" length="38.57" width="3.50" shape="-280.41,705.25 -297.18,714.77 -313.95,724.30"/>
    </edge>
    <edge id=":65_1" function="internal">
        <lane id=":65_1_0" index="0" disallow="pedestrian tram rail_urban rail rail_electric rail_fast ship" speed="11.91" length="35.40" width="3.50" shape="-280.41,705.25 -282.73,706.47 -285.16,707.52 -287.72,708.34 -290.37,708.86 -291.78,708.98 -293.18,708.98 -294.59,708.85 -295.98,708.58 -297.35,708.18 -298.67,707.64 -299.92,706.98 -301.10,706.20 -302.22,705.32 -304.13,703.41 -305.79,701.27 -307.20,699.01 -308.94,695.50"/>
    </edge>
    <edge id=":65_2" function="internal">
        <lane id=":65_2_0" index="0" disallow="pedestrian tram rail_urban rail rail_electric rail_fast ship" speed="10.89" length="29.40" width="3.50" shape="-305.73,694.10 -304.23,697.14 -303.03,699.06 -301.65,700.85 -300.05,702.45 -299.16,703.15 -298.22,703.77 -297.22,704.30 -296.17,704.73 -295.09,705.06 -293.98,705.27 -292.85,705.37 -291.72,705.37 -290.59,705.28 -288.37,704.85 -286.22,704.16 -284.14,703.26 -282.14,702.21"/>
    </edge>
    <edge id=":65_3" function="internal">
        <lane id=":65_3_0" index="0" disallow="pedestrian tram rail_urban rail rail_electric rail_fast ship" speed="12.86" length="35.07" width="3.50" shape="-305.73,694.10 -304.37,697.60 -303.35,701.22 -302.90,703.68 -302.69,706.18 -302.76,708.68 -303.14,711.16 -303.87,713.55 -304.93,715.82 -306.31,717.91 -307.95,719.80 -309.80,721.49 -311.81,722.98 -313.95,724.30"/>
    </edge>
    <edge id=":65_4" function="internal">
        <lane id=":65_4_0" index="0" disallow="pedestrian tram rail_urban rail rail_electric rail_fast ship" speed="11.91" length="29.90" width="3.50" shape="-315.69,721.26 -313.82,720.11 -312.09,718.83 -310.53,717.39 -309.16,715.80 -308.03,714.06 -307.17,712.19 -306.59,710.20 -306.28,708.14 -306.24,706.03 -306.43,703.89 -306.82,701.78 -307.74,698.59 -308.94,695.50"/>
    </edge>
    <edge id=":65_5" function="internal">
        <lane id=":65_5_0" index="0" disallow="pedestrian tram rail_urban rail rail_electric rail_fast ship" speed="36.11" length="38.58" width="3.50" shape="-315.69,721.26 -298.91,711.73 -282.14,702.21"/>
    </edge>
    <edge id=":66_0" function="internal">
        <lane id=":66_0_0" index="0" disallow="pedestrian tram rail_urban rail rail_electric rail_fast ship" speed="36.11" length="38.27" width="3.50" shape="-217.50,670.59 -232.23,678.16 -245.85,685.56 -251.26,688.60"/>
    </edge>
    <edge id=":66_1" function="internal">
        <lane id=":66_1_0" index="0" disallow="pedestrian tram rail_urban rail rail_electric rail_fast ship" speed="12.13" length="35.09" width="3.50" shape="-217.50,670.59 -221.22,672.22 -223.79,673.05 -226.43,673.61 -229.11,673.82 -230.46,673.78 -231.80,673.62 -233.12,673.35 -234.41,672.95 -235.65,672.44 -236.85,671.81 -237.98,671.08 -239.05,670.26 -240.98,668.39 -242.66,666.28 -244.12,664.01 -245.95,660.37"/>
    </edge>
    <edge id=":66_2" function="internal">
        <lane id=":66_2_0" index="0" disallow="pedestrian tram rail_urban rail rail_electric rail_fast ship" speed="11.12" length="29.33" width="3.50" shape="-242.75,658.96 -241.15,662.13 -239.92,664.06 -238.51,665.83 -236.88,667.40 -236.04,668.05 -235.13,668.64 -234.17,669.14 -233.18,669.55 -232.16,669.86 -231.10,670.08 -230.03,670.20 -228.97,670.24 -226.71,670.06 -224.50,669.59 -222.32,668.89 -219.06,667.46"/>
    </edge>
    <edge id=":66_3" function="internal">
        <lane id=":66_3_0" index="0" disallow="pedestrian tram rail_urban rail rail_electric rail_fast ship" speed="12.75" length="34.59" width="3.50" shape="-242.75,658.96 -241.34,662.57 -240.62,665.02 -240.10,667.53 -239.83,670.07 -239.86,672.63 -240.22,675.17 -240.95,677.62 -242.04,679.94 -243.45,682.07 -245.13,684.00 -247.02,685.72 -249.08,687.25 -251.26,688.60"/>
    </edge>
    <edge id=":66_4" function="internal">
        <lane id=":66_4_0" index="0" disallow="pedestrian tram rail_urban rail rail_electric rail_fast ship" speed="11.79" length="29.42" width="3.50" shape="-253.01,685.57 -251.10,684.39 -249.33,683.07 -247.72,681.61 -246.32,679.99 -245.15,678.21 -244.27,676.30 -243.68,674.28 -243.39,672.17 -243.38,670.02 -243.62,667.86 -244.07,665.70 -244.70,663.57 -245.95,660.37"/>
    </edge>
    <edge id=":66_5" function="internal">
        <lane id=":66_5_0" index="0" disallow="pedestrian tram rail_urban rail rail_electric rail_fast ship" speed="36.11" length="38.48" width="3.50" shape="-253.01,685.57 -247.55,682.50 -233.86,675.07 -219.06,667.46"/>
    </edge>
    <edge id=":67_0" function="internal">
        <lane id=":67_0_0" index="0" disallow="pedestrian tram rail_urban rail rail_electric rail_fast ship" speed="36.11" length="38.74" width="3.50" shape="-98.31,756.20 -101.90,751.04 -111.09,738.30 -121.17,724.93"/>
    </edge>
    <edge id=":67_1" function="internal">
        <lane id=":67_1_0" index="0" disallow="pedestrian tram rail_urban rail rail_electric rail_fast ship" speed="36.11" length="38.90" width="3.50" shape="-118.40,722.80 -108.27,736.23 -99.04,749.02 -95.44,754.20"/>
    </edge>
    <edge id=":67_2" function="internal">
        <lane id=":67_2_0" index="0" disallow="pedestrian tram rail_urban rail rail_electric rail_fast ship" speed="11.91" length="34.82" width="3.50" shape="-118.40,722.80 -116.20,725.97 -114.92,728.27 -113.88,730.71 -113.15,733.28 -112.92,734.67 -112.81,736.04 -112.84,737.44 -112.99,738.83 -113.29,740.19 -113.71,741.52 -114.25,742.80 -114.92,744.04 -116.45,746.23 -118.25,748.20 -120.23,749.94 -123.37,752.19"/>
    </edge>
    <edge id=":67_3" function="internal">
        <lane id=":67_3_0" index="0" disallow="pedestrian tram rail_urban rail rail_electric rail_fast ship" speed="10.89" length="28.91" width="3.50" shape="-125.26,749.24 -122.54,747.30 -120.87,745.83 -119.37,744.19 -118.10,742.37 -117.58,741.39 -117.15,740.37 -116.81,739.31 -116.58,738.22 -116.45,737.11 -116.44,736.00 -116.52,734.90 -116.70,733.80 -117.31,731.66 -118.19,729.62 -119.27,727.68 -121.17,724.93"/>
    </edge>
    <edge id=":68_0" function="internal">
        <lane id=":68_0_0" index="0" disallow="pedestrian tram rail_urban rail rail_electric rail_fast ship" speed="36.11" length="26.10" width="3.50" shape="-181.40,641.31 -182.90,636.29 -185.69,628.43 -190.25,616.77"/>
    </edge>
    <edge id=":68_1" function="internal">
        <lane id=":68_1_0" index="0" disallow="pedestrian tram rail_urban rail rail_electric rail_fast ship" speed="8.36" length="12.91" width="3.48" shape="-181.41,641.31 -181.55,640.22 -181.45,639.15 -180.93,637.61 -180.09,636.22 -178.70,634.56 -176.70,632.73 -174.60,631.18"/>
    </edge>
    <edge id=":68_2" function="internal">
        <lane id=":68_2_0" index="0" disallow="pedestrian tram rail_urban rail rail_electric rail_fast ship" speed="8.32" length="16.21" width="3.48" shape="-187.01,615.45 -185.52,618.69 -184.00,621.25 -182.55,623.13 -180.86,624.81 -179.43,625.87 -177.86,626.72 -176.59,627.16"/>
    </edge>
    <edge id=":68_3" function="internal">
        <lane id=":68_3_0" index="0" disallow="pedestrian tram rail_urban rail rail_electric rail_fast ship" speed="36.11" length="26.55" width="3.50" shape="-187.01,615.45 -182.39,627.27 -179.55,635.28 -178.02,640.42"/>
    </edge>
    <edge id=":69_0" function="internal">
        <lane id=":69_0_0" index="0" disallow="pedestrian tram rail_urban rail rail_electric rail_fast ship" speed="11.05" length="28.88" width="3.50" shape="-169.05,802.55 -170.93,799.63 -172.34,797.87 -173.91,796.27 -175.66,794.90 -176.56,794.36 -177.51,793.88 -178.50,793.48 -179.51,793.18 -180.55,792.98 -181.60,792.87 -182.67,792.86 -183.72,792.93 -185.91,793.33 -188.03,794.02 -190.10,794.92 -193.15,796.65"/>
    </edge>
    <edge id=":69_1" function="internal">
        <lane id=":69_1_0" index="0" disallow="pedestrian tram rail_urban rail rail_electric rail_fast ship" speed="12.45" length="34.49" width="3.50" shape="-169.05,802.55 -170.74,799.25 -171.68,796.91 -172.41,794.49 -172.87,791.96 -173.01,789.37 -172.78,786.79 -172.50,785.46 -172.12,784.20 -171.63,782.94 -170.43,780.66 -168.92,778.56 -167.18,776.68 -165.28,775.00 -162.28,772.85"/>
    </edge>
    <edge id=":69_2" function="internal">
        <lane id=":69_2_0" index="0" disallow="pedestrian tram rail_urban rail rail_electric rail_fast ship" speed="11.47" length="29.12" width="3.50" shape="-160.37,775.78 -163.00,777.66 -164.62,779.09 -166.08,780.68 -167.34,782.43 -168.34,784.34 -168.72,785.35 -169.03,786.38 -169.25,787.44 -169.44,789.59 -169.32,791.74 -168.92,793.86 -168.30,795.92 -167.49,797.92 -166.01,800.80"/>
    </edge>
    <edge id=":69_3" function="internal">
        <lane id=":69_3_0" index="0" disallow="pedestrian tram rail_urban rail rail_electric rail_fast ship" speed="36.11" length="38.86" width="3.50" shape="-160.37,775.78 -176.75,786.21 -193.15,796.65"/>
    </edge>
    <edge id=":69_4" function="internal">
        <lane id=":69_4_0" index="0" disallow="pedestrian tram rail_urban rail rail_electric rail_fast ship" speed="36.11" length="38.82" width="3.50" shape="-195.03,793.70 -178.63,783.26 -162.28,772.85"/>
    </edge>
    <edge id=":69_5" function="internal">
        <lane id=":69_5_0" index="0" disallow="pedestrian tram rail_urban rail rail_electric rail_fast ship" speed="12.07" length="34.64" width="3.50" shape="-195.03,793.70 -191.53,791.72 -189.09,790.65 -186.55,789.84 -183.94,789.35 -182.61,789.26 -181.28,789.28 -179.95,789.41 -178.65,789.67 -177.37,790.05 -176.13,790.54 -174.95,791.14 -173.81,791.84 -171.72,793.48 -169.85,795.37 -168.18,797.45 -166.01,800.80"/>
    </edge>

    <edge id="30991" from="69" to="67" priority="3" type="highway.residential" spreadType="center" length="43.92" shape="-175.42,789.03 -114.73,741.88">
        <lane id="30991_0" index="0" disallow="pedestrian tram rail_urban rail rail_electric rail_fast ship" speed="36.11" length="43.92" width="3.50" customShape="1" shape="-162.28,772.85 -143.75,761.03 -125.25,749.24"/>
    </edge>
    <edge id="30992" from="67" to="69" priority="3" type="highway.residential" spreadType="center" length="43.92" shape="-112.58,744.64 -173.27,791.79">
        <lane id="30992_0" index="0" disallow="pedestrian tram rail_urban rail rail_electric rail_fast ship" speed="36.11" length="43.92" width="3.50" customShape="1" shape="-123.37,752.19 -141.87,763.99 -160.40,775.80"/>
    </edge>
    <edge id="30994" from="58" to="69" priority="3" type="highway.residential" spreadType="center" length="60.80" shape="-246.31,826.31 -175.09,788.82">
        <lane id="30994_0" index="0" disallow="pedestrian tram rail_urban rail rail_electric rail_fast ship" speed="36.11" length="60.80" width="3.50" customShape="1" shape="-246.31,826.31 -220.66,810.00 -195.00,793.69"/>
    </edge>
    <edge id="30995" from="69" to="56" priority="3" type="highway.residential" spreadType="center" length="60.78" shape="-173.46,791.92 -244.43,829.27">
        <lane id="30995_0" index="0" disallow="pedestrian tram rail_urban rail rail_electric rail_fast ship" speed="36.11" length="60.78" width="3.50" customShape="1" shape="-193.15,796.65 -218.78,812.96 -244.43,829.27"/>
    </edge>
    <edge id="31009" from="62" to="69" priority="3" type="highway.residential" spreadType="center" length="53.01" shape="-142.62,848.50 -175.85,791.23">
        <lane id="31009_0" index="0" disallow="pedestrian tram rail_urban rail rail_electric rail_fast ship" speed="36.11" length="53.01" width="3.50" customShape="1" shape="-142.62,848.50 -155.83,825.52 -169.05,802.55"/>
    </edge>
    <edge id="31010" from="69" to="57" priority="3" type="highway.residential" spreadType="center" length="53.04" shape="-172.82,789.47 -139.57,846.78">
        <lane id="31010_0" index="0" disallow="pedestrian tram rail_urban rail rail_electric rail_fast ship" speed="36.11" length="53.04" width="3.50" customShape="1" shape="-166.01,800.80 -152.80,823.78 -139.57,846.78"/>
    </edge>
    <edge id="31068" from="50" to="51" priority="3" type="highway.residential" spreadType="center" length="37.51">
        <lane id="31068_0" index="0" disallow="pedestrian tram rail_urban rail rail_electric rail_fast ship" speed="36.11" length="37.51" width="3.50" customShape="1" shape="-83.19,605.11 -86.21,607.29 -92.41,611.54 -97.02,614.28 -100.87,616.17 -104.38,617.51 -107.48,618.38 -110.65,618.94 -113.86,619.15 -117.06,619.00"/>
    </edge>
    <edge id="31069" from="37" to="40" priority="3" type="highway.residential" spreadType="center" length="33.63">
        <lane id="31069_0" index="0" disallow="pedestrian tram rail_urban rail rail_electric rail_fast ship" speed="36.11" length="33.63" width="3.50" customShape="1" shape="-115.36,615.58 -113.82,615.65 -110.92,615.45 -108.04,614.92 -105.21,614.10 -101.99,612.83 -98.41,611.04 -94.06,608.44 -88.15,604.37 -85.23,602.26"/>
    </edge>
    <edge id="31105" from="65" to="32" priority="3" type="highway.residential" spreadType="center" length="70.00" shape="-302.76,707.78 -333.44,629.97">
        <lane id="31105_0" index="0" disallow="pedestrian tram rail_urban rail rail_electric rail_fast ship" speed="36.11" length="70.00" width="3.50" customShape="1" shape="-308.94,695.50 -313.91,683.93 -319.24,670.88 -324.00,658.15 -329.27,642.93 -333.44,629.97"/>
    </edge>
    <edge id="31106" from="38" to="65" priority="3" type="highway.residential" spreadType="center" length="70.02" shape="-330.22,628.57 -299.51,706.50">
        <lane id="31106_0" index="0" disallow="pedestrian tram rail_urban rail rail_electric rail_fast ship" speed="36.11" length="70.02" width="3.50" customShape="1" shape="-330.22,628.57 -325.97,641.75 -320.73,656.92 -315.99,669.58 -310.69,682.58 -305.72,694.12"/>
    </edge>
    <edge id="31181" from="66" to="63" priority="3" type="highway.residential" spreadType="center" length="27.80" shape="-238.83,670.28 -180.55,651.78">
        <lane id="31181_0" index="0" disallow="pedestrian tram rail_urban rail rail_electric rail_fast ship" speed="36.11" length="27.80" width="3.50" customShape="1" shape="-219.06,667.46 -206.65,661.24 -194.20,655.01"/>
    </edge>
    <edge id="31182" from="63" to="66" priority="3" type="highway.residential" spreadType="center" length="27.81" shape="-179.50,655.12 -237.78,673.61">
        <lane id="31182_0" index="0" disallow="pedestrian tram rail_urban rail rail_electric rail_fast ship" speed="36.11" length="27.81" width="3.50" customShape="1" shape="-192.65,658.15 -205.08,664.37 -217.52,670.60"/>
    </edge>
    <edge id="31184" from="65" to="66" priority="3" type="highway.residential" spreadType="center" length="33.57" shape="-302.00,705.58 -239.08,670.38">
        <lane id="31184_0" index="0" disallow="pedestrian tram rail_urban rail rail_electric rail_fast ship" speed="36.11" length="33.57" width="3.50" customShape="1" shape="-282.14,702.21 -267.57,693.88 -252.99,685.56"/>
    </edge>
    <edge id="31185" from="66" to="65" priority="3" type="highway.residential" spreadType="center" length="33.59" shape="-237.37,673.43 -300.29,708.63">
        <lane id="31185_0" index="0" disallow="pedestrian tram rail_urban rail rail_electric rail_fast ship" speed="36.11" length="33.59" width="3.50" customShape="1" shape="-251.26,688.60 -265.83,696.92 -280.43,705.26"/>
    </edge>
    <edge id="31187" from="39" to="65" priority="3" type="highway.residential" spreadType="center" length="59.57" shape="-367.54,750.55 -302.10,705.64">
        <lane id="31187_0" index="0" disallow="pedestrian tram rail_urban rail rail_electric rail_fast ship" speed="36.11" length="59.57" width="3.50" customShape="1" shape="-367.54,750.55 -341.60,735.90 -315.67,721.25"/>
    </edge>
    <edge id="31188" from="65" to="31" priority="3" type="highway.residential" spreadType="center" length="59.58" shape="-300.12,708.52 -365.83,753.60">
        <lane id="31188_0" index="0" disallow="pedestrian tram rail_urban rail rail_electric rail_fast ship" speed="36.11" length="59.58" width="3.50" customShape="1" shape="-313.95,724.30 -339.88,738.95 -365.83,753.60"/>
    </edge>
    <edge id="31336" from="68" to="26" priority="3" type="highway.residential" spreadType="center" length="36.25">
        <lane id="31336_0" index="0" disallow="pedestrian tram rail_urban rail rail_electric rail_fast ship" speed="36.11" length="36.25" width="3.48" customShape="1" shape="-174.94,630.49 -153.49,619.86 -142.46,614.40"/>
    </edge>
    <edge id="31633" from="68" to="25" priority="3" type="highway.residential" spreadType="center" length="70.00" shape="-181.86,628.62 -216.46,551.86">
        <lane id="31633_0" index="0" disallow="pedestrian tram rail_urban rail rail_electric rail_fast ship" speed="36.11" length="70.00" width="3.50" customShape="1" shape="-190.25,616.77 -206.05,577.65 -216.46,551.86"/>
    </edge>
    <edge id="31634" from="36" to="68" priority="3" type="highway.residential" spreadType="center" length="70.00" shape="-213.22,550.55 -178.67,627.18">
        <lane id="31634_0" index="0" disallow="pedestrian tram rail_urban rail rail_electric rail_fast ship" speed="36.11" length="70.00" width="3.50" customShape="1" shape="-213.22,550.55 -202.80,576.34 -187.01,615.46"/>
    </edge>
    <edge id="31636" from="63" to="68" priority="3" type="highway.residential" spreadType="center" length="0.33" shape="-181.77,653.47 -182.02,627.76">
        <lane id="31636_0" index="0" disallow="pedestrian tram rail_urban rail rail_electric rail_fast ship" speed="36.11" length="0.33" width="3.49" customShape="1" shape="-181.33,641.59 -181.38,641.42 -181.41,641.27"/>
    </edge>
    <edge id="31637" from="68" to="63" priority="3" type="highway.residential" spreadType="center" length="0.33" shape="-178.53,627.73 -178.28,653.43">
        <lane id="31637_0" index="0" disallow="pedestrian tram rail_urban rail rail_electric rail_fast ship" speed="36.11" length="0.33" width="3.50" customShape="1" shape="-178.02,640.42 -177.98,640.56 -177.94,640.74"/>
    </edge>
    <edge id="31639" from="67" to="63" priority="3" type="highway.residential" spreadType="center" length="77.36" shape="-115.05,744.32 -181.43,654.49">
        <lane id="31639_0" index="0" disallow="pedestrian tram rail_urban rail rail_electric rail_fast ship" speed="36.11" length="77.36" width="3.50" customShape="1" shape="-121.17,724.93 -144.79,694.30 -168.41,663.67"/>
    </edge>
    <edge id="31640" from="63" to="67" priority="3" type="highway.residential" spreadType="center" length="77.39" shape="-178.62,652.41 -112.23,742.25">
        <lane id="31640_0" index="0" disallow="pedestrian tram rail_urban rail rail_electric rail_fast ship" speed="36.11" length="77.39" width="3.50" customShape="1" shape="-165.64,661.53 -142.02,692.16 -118.38,722.82"/>
    </edge>
    <edge id="31642" from="61" to="67" priority="3" type="highway.residential" spreadType="center" length="5.25" shape="-95.35,760.51 -114.83,744.51">
        <lane id="31642_0" index="0" disallow="pedestrian tram rail_urban rail rail_electric rail_fast ship" speed="36.11" length="5.25" width="3.42" customShape="1" shape="-95.35,760.51 -98.18,756.38 -98.25,756.29 -98.32,756.18"/>
    </edge>
    <edge id="31643" from="67" to="49" priority="3" type="highway.residential" spreadType="center" length="5.22" shape="-112.63,741.84 -92.51,758.52">