<routes>
	<vehicle depart="0.1" departLane="0" departPos="26.943563989697005" departSpeed="6.9715527" id="338" type="bus">
		<route edges=":30_5 66688 66667"/>
	</vehicle>
	<vehicle depart="0.1" departLane="0" departPos="60.85935407187995" departSpeed="0.0033412005" id="32" type="passenger">
		<route edges="66673 66684"/>
	</vehicle>
	<vehicle depart="0.1" departLane="0" departPos="19.56285119918418" departSpeed="4.5382816" id="341" type="passenger">
		<route edges="66685 66688"/>
	</vehicle>
	<vehicle depart="0.1" departLane="0" departPos="13.020560272375572" departSpeed="8.8433865" id="318" type="truck">
		<route edges="66688 66691"/>
	</vehicle>
</routes>
