<!-- generated on Tue Feb  9 22:05:46 2021 by Eclipse SUMO netconvert Version 1.8.0
<configuration xmlns:xsi="http://www.w3.org/2001/XMLSchema-instance" xsi:noNamespaceSchemaLocation="http://sumo.dlr.de/xsd/netconvertConfiguration.xsd">

    <input>
        <node-files value="./converted_scenarios/scenario-factory/BEL_Wervik-4_1_I-1-1/BEL_Wervik-4_1_I-1-1.nod.xml"/>
        <edge-files value="./converted_scenarios/scenario-factory/BEL_Wervik-4_1_I-1-1/BEL_Wervik-4_1_I-1-1.edg.xml"/>
        <connection-files value="./converted_scenarios/scenario-factory/BEL_Wervik-4_1_I-1-1/BEL_Wervik-4_1_I-1-1.con.xml"/>
        <tllogic-files value="./converted_scenarios/scenario-factory/BEL_Wervik-4_1_I-1-1/BEL_Wervik-4_1_I-1-1.tll.xml"/>
        <type-files value="/home/zen/commonroad-interactive-benchmarks/install/commonroad-map-tool/crmapconverter/sumo_map/templates/DEU.typ.xml"/>
    </input>

    <output>
        <output-file value="./converted_scenarios/scenario-factory/BEL_Wervik-4_1_I-1-1/BEL_Wervik-4_1_I-1-1.net.xml"/>
    </output>

    <processing>
        <geometry.remove.keep-edges.explicit value="true"/>
        <geometry.avoid-overlap value="true"/>
        <offset.disable-normalization value="true"/>
    </processing>

    <junctions>
        <no-turnarounds value="true"/>
        <junctions.internal-link-detail value="20"/>
    </junctions>

    <report>
        <aggregate-warnings value="5"/>
    </report>

    <random_number>
        <seed value="1234"/>
    </random_number>

</configuration>
--><net xmlns:xsi="http://www.w3.org/2001/XMLSchema-instance" version="1.6" junctionCornerDetail="5" junctionLinkDetail="20" limitTurnSpeed="5.50" xsi:noNamespaceSchemaLocation="http://sumo.dlr.de/xsd/net_file.xsd">

    <location netOffset="0.00,0.00" convBoundary="282.69,-714.45,546.39,-403.03" origBoundary="282.69,-714.45,546.39,-403.03" projParameter="!"/>

    <type id="highway.bridleway" priority="1" speed="2.78" allow="pedestrian" oneway="1" width="2.00"/>
    <type id="highway.bus_guideway" priority="1" speed="27.78" allow="bus" oneway="1"/>
    <type id="highway.cycleway" priority="1" speed="8.33" allow="bicycle" oneway="0" width="1.00"/>
    <type id="highway.footway" priority="1" speed="2.78" allow="pedestrian" oneway="1" width="2.00"/>
    <type id="highway.ford" priority="1" speed="2.78" allow="army" oneway="0"/>
    <type id="highway.living_street" priority="2" speed="2.78" disallow="tram rail_urban rail rail_electric rail_fast ship" oneway="0"/>
    <type id="highway.motorway" priority="14" speed="39.44" allow="private emergency authority army vip passenger hov taxi bus coach delivery truck trailer motorcycle evehicle custom1 custom2" oneway="1"/>
    <type id="highway.motorway_link" priority="9" speed="22.22" allow="private emergency authority army vip passenger hov taxi bus coach delivery truck trailer motorcycle evehicle custom1 custom2" oneway="1"/>
    <type id="highway.path" priority="1" speed="2.78" allow="pedestrian bicycle" oneway="0" width="2.00"/>
    <type id="highway.pedestrian" priority="1" speed="2.78" allow="pedestrian" oneway="1" width="2.00"/>
    <type id="highway.primary" priority="12" speed="27.78" disallow="pedestrian tram rail_urban rail rail_electric rail_fast ship" oneway="0"/>
    <type id="highway.primary_link" priority="7" speed="22.22" disallow="pedestrian tram rail_urban rail rail_electric rail_fast ship" oneway="0"/>
    <type id="highway.raceway" priority="15" speed="83.33" allow="vip" oneway="0"/>
    <type id="highway.residential" priority="3" speed="13.89" disallow="pedestrian tram rail_urban rail rail_electric rail_fast ship" oneway="0"/>
    <type id="highway.secondary" priority="11" speed="27.78" disallow="pedestrian tram rail_urban rail rail_electric rail_fast ship" oneway="0"/>
    <type id="highway.secondary_link" priority="6" speed="22.22" disallow="pedestrian tram rail_urban rail rail_electric rail_fast ship" oneway="0"/>
    <type id="highway.service" priority="1" speed="5.56" allow="pedestrian delivery bicycle" oneway="0"/>
    <type id="highway.stairs" priority="1" speed="1.39" allow="pedestrian" oneway="1" width="2.00"/>
    <type id="highway.step" priority="1" speed="1.39" allow="pedestrian" oneway="1" width="2.00"/>
    <type id="highway.steps" priority="1" speed="1.39" allow="pedestrian" oneway="1" width="2.00"/>
    <type id="highway.tertiary" priority="10" speed="22.22" disallow="pedestrian tram rail_urban rail rail_electric rail_fast ship" oneway="0"/>
    <type id="highway.tertiary_link" priority="5" speed="22.22" disallow="pedestrian tram rail_urban rail rail_electric rail_fast ship" oneway="0"/>
    <type id="highway.track" priority="1" speed="5.56" allow="pedestrian motorcycle moped bicycle" oneway="0"/>
    <type id="highway.trunk" priority="13" speed="27.78" disallow="pedestrian bicycle tram rail_urban rail rail_electric rail_fast ship" oneway="0"/>
    <type id="highway.trunk_link" priority="8" speed="22.22" disallow="pedestrian bicycle tram rail_urban rail rail_electric rail_fast ship" oneway="0"/>
    <type id="highway.unclassified" priority="4" speed="13.89" disallow="pedestrian tram rail_urban rail rail_electric rail_fast ship" oneway="0"/>
    <type id="highway.unsurfaced" priority="1" speed="8.33" disallow="tram rail_urban rail rail_electric rail_fast ship" oneway="0"/>
    <type id="railway.highspeed" priority="21" speed="69.44" allow="rail_fast" oneway="1"/>
    <type id="railway.light_rail" priority="19" speed="27.78" allow="rail_urban" oneway="1"/>
    <type id="railway.preserved" priority="16" speed="27.78" allow="rail" oneway="1"/>
    <type id="railway.rail" priority="20" speed="44.44" allow="rail" oneway="1"/>
    <type id="railway.subway" priority="18" speed="27.78" allow="rail_urban" oneway="1"/>
    <type id="railway.tram" priority="17" speed="13.89" allow="tram" oneway="1"/>

    <edge id=":41_0" function="internal">
        <lane id=":41_0_0" index="0" disallow="pedestrian tram rail_urban rail rail_electric rail_fast ship" speed="36.11" length="0.10" width="3.50" shape="299.49,-517.40 299.49,-517.40"/>
    </edge>
    <edge id=":47_0" function="internal">
        <lane id=":47_0_0" index="0" disallow="pedestrian tram rail_urban rail rail_electric rail_fast ship" speed="36.11" length="3.07" width="3.50" shape="312.45,-491.41 309.65,-492.68"/>
    </edge>
    <edge id=":51_0" function="internal">
        <lane id=":51_0_0" index="0" disallow="pedestrian tram rail_urban rail rail_electric rail_fast ship" speed="36.11" length="3.08" width="3.50" shape="311.05,-495.88 313.86,-494.61"/>
    </edge>
    <edge id=":52_0" function="internal">
        <lane id=":52_0_0" index="0" disallow="pedestrian tram rail_urban rail rail_electric rail_fast ship" speed="36.11" length="0.10" width="3.50" shape="296.01,-517.76 296.01,-517.76"/>
    </edge>
    <edge id=":61_0" function="internal">
        <lane id=":61_0_0" index="0" disallow="pedestrian tram rail_urban rail rail_electric rail_fast ship" speed="10.66" length="29.37" width="3.50" shape="451.56,-602.05 448.62,-603.73 446.55,-604.64 444.40,-605.33 443.30,-605.57 442.18,-605.72 441.05,-605.78 439.92,-605.72 438.80,-605.55 437.71,-605.26 436.66,-604.85 435.65,-604.34 434.71,-603.72 433.82,-603.01 433.00,-602.24 431.54,-600.52 430.28,-598.64 429.21,-596.65 428.28,-594.59"/>
    </edge>
    <edge id=":61_1" function="internal">
        <lane id=":61_1_0" index="0" disallow="pedestrian tram rail_urban rail rail_electric rail_fast ship" speed="36.11" length="38.87" width="3.50" shape="451.56,-602.05 435.20,-612.52 418.82,-623.01"/>
    </edge>
    <edge id=":61_2" function="internal">
        <lane id=":61_2_0" index="0" disallow="pedestrian tram rail_urban rail rail_electric rail_fast ship" speed="36.11" length="38.81" width="3.50" shape="420.73,-625.94 437.09,-615.47 453.42,-605.02"/>
    </edge>
    <edge id=":61_3" function="internal">
        <lane id=":61_3_0" index="0" disallow="pedestrian tram rail_urban rail rail_electric rail_fast ship" speed="13.37" length="35.58" width="3.50" shape="420.73,-625.94 422.75,-624.51 424.63,-622.93 426.34,-621.17 427.84,-619.24 429.11,-617.13 430.09,-614.89 430.77,-612.53 431.16,-610.11 431.27,-607.66 431.14,-605.21 430.54,-601.58 429.56,-598.04 428.28,-594.59"/>
    </edge>
    <edge id=":61_4" function="internal">
        <lane id=":61_4_0" index="0" disallow="pedestrian tram rail_urban rail rail_electric rail_fast ship" speed="12.45" length="30.71" width="3.50" shape="425.04,-595.92 426.19,-599.01 427.07,-602.15 427.61,-605.34 427.74,-607.44 427.66,-609.53 427.34,-611.59 426.78,-613.57 425.98,-615.46 424.93,-617.23 423.66,-618.88 422.20,-620.39 420.59,-621.76 418.82,-623.01"/>
    </edge>
    <edge id=":61_5" function="internal">
        <lane id=":61_5_0" index="0" disallow="pedestrian tram rail_urban rail rail_electric rail_fast ship" speed="11.70" length="35.63" width="3.50" shape="425.04,-595.92 426.13,-598.32 427.39,-600.65 428.88,-602.89 430.64,-604.95 431.67,-605.93 432.78,-606.80 433.97,-607.58 435.25,-608.24 436.59,-608.76 437.99,-609.13 439.41,-609.34 440.84,-609.41 442.25,-609.35 443.63,-609.16 445.01,-608.86 447.57,-608.04 450.02,-606.95 453.42,-605.02"/>
    </edge>
    <edge id=":62_0" function="internal">
        <lane id=":62_0_0" index="0" disallow="pedestrian tram rail_urban rail rail_electric rail_fast ship" speed="36.11" length="36.36" width="3.50" shape="404.51,-549.66 401.14,-544.43 397.49,-538.15 394.14,-531.70 391.09,-525.11 387.93,-517.39"/>
    </edge>
    <edge id=":62_1" function="internal">
        <lane id=":62_1_0" index="0" disallow="pedestrian tram rail_urban rail rail_electric rail_fast ship" speed="13.31" length="34.00" width="3.50" shape="404.51,-549.65 403.10,-547.72 401.52,-545.90 399.78,-544.21 397.85,-542.69 395.75,-541.40 393.49,-540.37 391.13,-539.63 388.70,-539.19 386.26,-539.03 383.82,-539.13 381.42,-539.45 377.95,-540.27 374.59,-541.41"/>
    </edge>
    <edge id=":62_2" function="internal">
        <lane id=":62_2_0" index="0" disallow="pedestrian tram rail_urban rail rail_electric rail_fast ship" speed="12.37" length="29.25" width="3.50" shape="375.85,-544.67 378.83,-543.66 381.88,-542.94 383.95,-542.66 386.03,-542.56 388.12,-542.69 390.18,-543.05 392.17,-543.67 394.08,-544.52 395.86,-545.61 397.51,-546.90 399.01,-548.35 400.38,-549.93 401.61,-551.61"/>
    </edge>
    <edge id=":62_3" function="internal">
        <lane id=":62_3_0" index="0" disallow="pedestrian tram rail_urban rail rail_electric rail_fast ship" speed="12.18" length="34.19" width="3.50" shape="375.85,-544.67 379.45,-543.05 381.73,-541.74 383.86,-540.20 385.77,-538.40 386.63,-537.40 387.41,-536.34 388.09,-535.22 388.68,-534.04 389.15,-532.82 389.52,-531.56 389.79,-530.27 390.01,-527.66 389.88,-525.03 389.46,-522.44 388.79,-519.90 387.93,-517.39"/>
    </edge>
    <edge id=":62_4" function="internal">
        <lane id=":62_4_0" index="0" disallow="pedestrian tram rail_urban rail rail_electric rail_fast ship" speed="11.18" length="28.62" width="3.50" shape="384.66,-518.64 385.41,-520.82 385.99,-523.01 386.35,-525.21 386.46,-527.40 386.27,-529.58 386.06,-530.59 385.76,-531.60 385.38,-532.58 384.91,-533.53 384.36,-534.43 383.74,-535.29 383.06,-536.08 381.45,-537.59 379.66,-538.88 377.73,-540.00 374.59,-541.41"/>
    </edge>
    <edge id=":62_5" function="internal">
        <lane id=":62_5_0" index="0" disallow="pedestrian tram rail_urban rail rail_electric rail_fast ship" speed="36.11" length="37.15" width="3.50" shape="384.66,-518.64 387.88,-526.51 391.01,-533.25 394.43,-539.84 398.16,-546.26 401.61,-551.61"/>
    </edge>
    <edge id=":63_0" function="internal">
        <lane id=":63_0_0" index="0" disallow="pedestrian tram rail_urban rail rail_electric rail_fast ship" speed="11.87" length="35.52" width="3.50" shape="480.11,-431.89 476.39,-433.60 474.03,-434.98 471.82,-436.60 469.85,-438.49 468.98,-439.54 468.21,-440.67 467.54,-441.87 467.00,-443.12 466.59,-444.43 466.32,-445.77 466.18,-447.12 466.16,-448.49 466.25,-449.86 466.73,-452.55 467.53,-455.16 468.57,-457.69 469.79,-460.12"/>
    </edge>
    <edge id=":63_1" function="internal">
        <lane id=":63_1_0" index="0" disallow="pedestrian tram rail_urban rail rail_electric rail_fast ship" speed="10.86" length="29.51" width="3.50" shape="472.88,-458.47 471.80,-456.34 470.91,-454.17 470.23,-451.96 469.83,-449.70 469.76,-448.62 469.78,-447.52 469.89,-446.45 470.11,-445.39 470.43,-444.37 470.85,-443.39 471.37,-442.45 471.99,-441.55 472.67,-440.73 474.32,-439.15 476.17,-437.80 478.17,-436.63 481.41,-435.14"/>
    </edge>
    <edge id=":63_2" function="internal">
        <lane id=":63_2_0" index="0" disallow="pedestrian tram rail_urban rail rail_electric rail_fast ship" speed="36.11" length="39.79" width="3.50" shape="472.88,-458.47 469.64,-452.09 465.84,-443.74 461.13,-432.44 457.05,-421.99"/>
    </edge>
    <edge id=":63_3" function="internal">
        <lane id=":63_3_0" index="0" disallow="pedestrian tram rail_urban rail rail_electric rail_fast ship" speed="36.11" length="40.23" width="3.50" shape="453.78,-423.24 457.90,-433.78 462.65,-445.19 466.50,-453.65 469.79,-460.12"/>
    </edge>
    <edge id=":64_0" function="internal">
        <lane id=":64_0_0" index="0" disallow="pedestrian tram rail_urban rail rail_electric rail_fast ship" speed="11.71" length="27.81" width="3.50" shape="431.76,-559.89 428.79,-561.16 426.75,-561.82 424.67,-562.29 422.54,-562.53 420.40,-562.52 418.29,-562.20 416.24,-561.59 414.31,-560.68 412.52,-559.51 410.89,-558.13 409.41,-556.58 408.08,-554.90 407.47,-554.04"/>
    </edge>
    <edge id=":64_1" function="internal">
        <lane id=":64_1_0" index="0" disallow="pedestrian tram rail_urban rail rail_electric rail_fast ship" speed="12.34" length="33.81" width="3.50" shape="431.76,-559.89 429.44,-561.12 427.26,-562.53 425.22,-564.14 423.39,-565.99 421.84,-568.07 421.18,-569.19 420.62,-570.37 420.16,-571.58 419.80,-572.83 419.38,-575.39 419.32,-577.99 419.59,-580.58 420.12,-583.12 421.30,-586.83 421.78,-588.04"/>
    </edge>
    <edge id=":64_2" function="internal">
        <lane id=":64_2_0" index="0" disallow="pedestrian tram rail_urban rail rail_electric rail_fast ship" speed="11.35" length="28.43" width="3.50" shape="425.01,-586.71 424.60,-585.67 423.56,-582.40 423.10,-580.24 422.87,-578.05 422.91,-575.90 423.26,-573.76 423.54,-572.78 423.91,-571.80 424.36,-570.85 424.87,-569.96 426.16,-568.22 427.68,-566.68 429.40,-565.31 431.28,-564.11 433.26,-563.05"/>
    </edge>
    <edge id=":64_3" function="internal">
        <lane id=":64_3_0" index="0" disallow="pedestrian tram rail_urban rail rail_electric rail_fast ship" speed="36.11" length="37.14" width="3.50" shape="425.01,-586.71 423.76,-583.76 420.21,-576.06 416.31,-568.52 412.05,-561.17 407.47,-554.04"/>
    </edge>
    <edge id=":64_4" function="internal">
        <lane id=":64_4_0" index="0" disallow="pedestrian tram rail_urban rail rail_electric rail_fast ship" speed="36.11" length="36.43" width="3.50" shape="404.57,-556.00 409.07,-563.00 413.24,-570.21 417.07,-577.60 420.56,-585.17 421.78,-588.04"/>
    </edge>
    <edge id=":64_5" function="internal">
        <lane id=":64_5_0" index="0" disallow="pedestrian tram rail_urban rail rail_electric rail_fast ship" speed="12.69" length="32.83" width="3.50" shape="404.57,-556.00 405.29,-557.01 406.82,-558.94 408.55,-560.76 410.48,-562.40 412.62,-563.80 414.96,-564.91 417.43,-565.67 419.99,-566.05 422.55,-566.08 425.07,-565.80 427.52,-565.25 429.89,-564.49 433.26,-563.05"/>
    </edge>
    <edge id=":65_0" function="internal">
        <lane id=":65_0_0" index="0" disallow="pedestrian tram rail_urban rail rail_electric rail_fast ship" speed="36.11" length="31.41" width="3.50" shape="382.93,-463.14 380.93,-463.91 372.07,-466.96 353.09,-472.92"/>
    </edge>
    <edge id=":65_1" function="internal">
        <lane id=":65_1_0" index="0" disallow="pedestrian tram rail_urban rail rail_electric rail_fast ship" speed="12.04" length="34.59" width="3.50" shape="382.93,-463.14 380.46,-464.27 378.19,-465.61 376.10,-467.24 375.11,-468.22 374.21,-469.26 373.41,-470.38 372.72,-471.58 372.14,-472.83 371.68,-474.13 371.34,-475.46 371.12,-476.84 370.98,-479.48 371.19,-482.12 371.66,-484.69 372.73,-488.36 374.12,-491.90"/>
    </edge>
    <edge id=":65_2" function="internal">
        <lane id=":65_2_0" index="0" disallow="pedestrian tram rail_urban rail rail_electric rail_fast ship" speed="11.02" length="28.82" width="3.50" shape="377.35,-490.54 376.10,-487.40 375.16,-484.21 374.75,-482.04 374.55,-479.83 374.63,-477.62 374.80,-476.52 375.05,-475.45 375.40,-474.40 375.85,-473.38 376.38,-472.41 377.01,-471.50 377.72,-470.65 378.50,-469.86 380.23,-468.49 382.13,-467.35 384.12,-466.43"/>
    </edge>
    <edge id=":65_3" function="internal">
        <lane id=":65_3_0" index="0" disallow="pedestrian tram rail_urban rail rail_electric rail_fast ship" speed="12.30" length="33.17" width="3.50" shape="377.35,-490.54 375.11,-485.91 373.18,-482.61 370.96,-479.51 369.28,-477.59 367.42,-475.86 365.36,-474.37 364.25,-473.74 363.09,-473.21 361.89,-472.78 360.66,-472.46 359.41,-472.26 358.14,-472.18 356.86,-472.21 355.60,-472.34 353.09,-472.92"/>
    </edge>
    <edge id=":65_4" function="internal">
        <lane id=":65_4_0" index="0" disallow="pedestrian tram rail_urban rail rail_electric rail_fast ship" speed="11.30" length="27.86" width="3.50" shape="354.25,-476.24 356.18,-475.80 357.17,-475.71 358.18,-475.70 359.18,-475.79 360.17,-475.98 361.14,-476.26 362.08,-476.63 363.00,-477.09 363.87,-477.62 365.57,-478.92 367.12,-480.43 368.53,-482.10 370.45,-484.86 372.14,-487.79 374.12,-491.90"/>
    </edge>
    <edge id=":65_5" function="internal">
        <lane id=":65_5_0" index="0" disallow="pedestrian tram rail_urban rail rail_electric rail_fast ship" speed="36.11" length="31.45" width="3.50" shape="354.24,-476.23 373.22,-470.26 382.18,-467.18 384.12,-466.43"/>
    </edge>
    <edge id=":66_0" function="internal">
        <lane id=":66_0_0" index="0" disallow="pedestrian tram rail_urban rail rail_electric rail_fast ship" speed="11.88" length="29.18" width="3.50" shape="335.13,-556.74 333.09,-557.44 330.99,-557.95 328.84,-558.24 326.68,-558.26 324.54,-557.99 322.46,-557.41 320.48,-556.54 318.64,-555.41 316.94,-554.06 315.40,-552.55 313.99,-550.91 312.12,-548.26 311.01,-546.41"/>
    </edge>
    <edge id=":66_1" function="internal">
        <lane id=":66_1_0" index="0" disallow="pedestrian tram rail_urban rail rail_electric rail_fast ship" speed="36.11" length="38.63" width="3.50" shape="335.13,-556.74 312.84,-565.61 299.30,-571.19"/>
    </edge>
    <edge id=":66_2" function="internal">
        <lane id=":66_2_0" index="0" disallow="pedestrian tram rail_urban rail rail_electric rail_fast ship" speed="36.11" length="38.53" width="3.50" shape="300.65,-574.42 314.15,-568.86 336.38,-560.01"/>
    </edge>
    <edge id=":66_3" function="internal">
        <lane id=":66_3_0" index="0" disallow="pedestrian tram rail_urban rail rail_electric rail_fast ship" speed="11.91" length="35.30" width="3.50" shape="300.65,-574.42 304.35,-572.66 306.69,-571.28 308.87,-569.67 310.84,-567.80 311.72,-566.77 312.50,-565.66 313.18,-564.48 313.74,-563.25 314.17,-561.96 314.46,-560.64 314.63,-559.29 314.66,-557.93 314.58,-556.58 314.12,-553.91 313.32,-551.31 312.26,-548.81 311.01,-546.41"/>
    </edge>
    <edge id=":66_4" function="internal">
        <lane id=":66_4_0" index="0" disallow="pedestrian tram rail_urban rail rail_electric rail_fast ship" speed="10.89" length="29.30" width="3.50" shape="307.95,-548.09 309.04,-550.20 309.94,-552.34 310.62,-554.51 311.00,-556.74 311.06,-557.81 311.02,-558.88 310.89,-559.94 310.66,-560.98 310.32,-561.98 309.87,-562.95 309.33,-563.88 308.71,-564.76 308.02,-565.57 306.37,-567.13 304.52,-568.48 302.54,-569.66 299.30,-571.19"/>
    </edge>
    <edge id=":66_5" function="internal">
        <lane id=":66_5_0" index="0" disallow="pedestrian tram rail_urban rail rail_electric rail_fast ship" speed="12.83" length="34.24" width="3.50" shape="307.94,-548.09 309.23,-550.24 311.36,-553.23 313.00,-555.14 314.81,-556.89 316.82,-558.46 319.02,-559.79 321.41,-560.81 323.92,-561.49 326.49,-561.80 329.06,-561.76 331.59,-561.41 334.03,-560.81 336.38,-560.01"/>
    </edge>
    <edge id=":67_0" function="internal">
        <lane id=":67_0_0" index="0" disallow="pedestrian tram rail_urban rail rail_electric rail_fast ship" speed="36.11" length="38.38" width="3.50" shape="403.09,-633.25 399.58,-635.52 388.11,-642.65 378.24,-648.37 370.04,-652.74"/>
    </edge>
    <edge id=":67_1" function="internal">
        <lane id=":67_1_0" index="0" disallow="pedestrian tram rail_urban rail rail_electric rail_fast ship" speed="11.67" length="36.06" width="3.50" shape="403.09,-633.25 399.70,-635.70 397.63,-637.54 395.76,-639.59 394.93,-640.70 394.19,-641.88 393.56,-643.11 393.05,-644.40 392.68,-645.73 392.46,-647.10 392.39,-648.48 392.48,-649.87 392.72,-651.23 393.08,-652.57 393.57,-653.87 394.81,-656.35 396.33,-658.66 398.07,-660.83 399.95,-662.86"/>
    </edge>
    <edge id=":67_2" function="internal">
        <lane id=":67_2_0" index="0" disallow="pedestrian tram rail_urban rail rail_electric rail_fast ship" speed="10.63" length="29.70" width="3.50" shape="402.45,-660.41 400.81,-658.64 399.32,-656.79 398.03,-654.84 396.99,-652.77 396.62,-651.75 396.33,-650.68 396.14,-649.62 396.07,-648.55 396.12,-647.49 396.29,-646.44 396.57,-645.41 396.97,-644.40 397.47,-643.42 398.07,-642.48 398.73,-641.59 400.30,-639.86 402.06,-638.31 405.00,-636.18"/>
    </edge>
    <edge id=":67_3" function="internal">
        <lane id=":67_3_0" index="0" disallow="pedestrian tram rail_urban rail rail_electric rail_fast ship" speed="14.13" length="35.97" width="3.50" shape="402.45,-660.41 400.76,-658.77 398.11,-656.49 395.24,-654.41 392.17,-652.63 389.96,-651.63 387.68,-650.83 385.31,-650.27 382.89,-649.96 380.45,-649.91 378.02,-650.14 375.64,-650.61 373.31,-651.33 370.04,-652.74"/>
    </edge>
    <edge id=":67_4" function="internal">
        <lane id=":67_4_0" index="0" disallow="pedestrian tram rail_urban rail rail_electric rail_fast ship" speed="13.25" length="31.54" width="3.50" shape="371.61,-655.86 374.50,-654.62 376.51,-654.01 378.58,-653.61 380.67,-653.43 382.77,-653.49 384.86,-653.78 386.90,-654.28 388.88,-654.99 390.79,-655.87 393.51,-657.47 396.06,-659.33 398.44,-661.40 399.95,-662.86"/>
    </edge>
    <edge id=":67_5" function="internal">
        <lane id=":67_5_0" index="0" disallow="pedestrian tram rail_urban rail rail_electric rail_fast ship" speed="36.11" length="38.77" width="3.50" shape="371.61,-655.86 379.92,-651.44 389.89,-645.66 401.46,-638.47 405.00,-636.18"/>
    </edge>

    <edge id="4548" from="66" to="62" priority="3" type="highway.residential" spreadType="center" length="42.36" shape="315.55,-561.16 388.70,-538.90">
        <lane id="4548_0" index="0" disallow="pedestrian tram rail_urban rail rail_electric rail_fast ship" speed="36.11" length="42.36" width="3.50" customShape="1" shape="336.38,-560.01 356.13,-552.34 375.86,-544.67"/>
    </edge>
    <edge id="4549" from="62" to="66" priority="3" type="highway.residential" spreadType="center" length="42.36" shape="387.68,-535.56 314.53,-557.82">
        <lane id="4549_0" index="0" disallow="pedestrian tram rail_urban rail rail_electric rail_fast ship" speed="36.11" length="42.36" width="3.50" customShape="1" shape="374.59,-541.41 354.86,-549.08 335.11,-556.75"/>
    </edge>
    <edge id="4556" from="50" to="67" priority="3" type="highway.residential" spreadType="center" length="70.00" shape="449.67,-711.99 393.30,-649.03">
        <lane id="4556_0" index="0" disallow="pedestrian tram rail_urban rail rail_electric rail_fast ship" speed="36.11" length="70.00" width="3.50" customShape="1" shape="449.67,-711.99 440.51,-700.51 433.95,-692.77 428.79,-687.18 402.44,-660.41"/>
    </edge>
    <edge id="4557" from="67" to="37" priority="3" type="highway.residential" spreadType="center" length="70.00" shape="390.69,-651.36 447.16,-714.45">
        <lane id="4557_0" index="0" disallow="pedestrian tram rail_urban rail rail_electric rail_fast ship" speed="36.11" length="70.00" width="3.50" customShape="1" shape="399.95,-662.86 426.22,-689.55 431.33,-695.08 437.83,-702.77 447.16,-714.45"/>
    </edge>
    <edge id="4565" from="51" to="65" priority="3" type="highway.residential" spreadType="center" length="44.41" shape="312.44,-495.21 371.45,-478.54">
        <lane id="4565_0" index="0" disallow="pedestrian tram rail_urban rail rail_electric rail_fast ship" speed="36.11" length="44.41" width="3.50" customShape="1" shape="313.86,-494.61 325.91,-489.54 330.96,-487.25 339.00,-483.06 345.72,-479.61 350.34,-477.59 354.24,-476.22"/>
    </edge>
    <edge id="4566" from="65" to="47" priority="3" type="highway.residential" spreadType="center" length="44.69" shape="370.50,-475.17 311.03,-492.00">
        <lane id="4566_0" index="0" disallow="pedestrian tram rail_urban rail rail_electric rail_fast ship" speed="36.11" length="44.69" width="3.50" customShape="1" shape="353.09,-472.92 349.17,-474.29 344.42,-476.35 337.61,-479.83 329.58,-484.03 324.58,-486.31 312.45,-491.41"/>
    </edge>
    <edge id="4583" from="67" to="43" priority="3" type="highway.residential" spreadType="center" length="69.99" shape="391.24,-648.66 311.36,-690.72">
        <lane id="4583_0" index="0" disallow="pedestrian tram rail_urban rail rail_electric rail_fast ship" speed="36.11" length="69.99" width="3.50" customShape="1" shape="370.04,-652.74 362.02,-656.95 352.49,-662.54 341.41,-669.43 330.96,-676.38 320.72,-683.64 311.36,-690.72"/>
    </edge>
    <edge id="4584" from="49" to="67" priority="3" type="highway.residential" spreadType="center" length="70.07" shape="312.96,-693.90 392.87,-651.75">
        <lane id="4584_0" index="0" disallow="pedestrian tram rail_urban rail rail_electric rail_fast ship" speed="36.11" length="70.07" width="3.50" customShape="1" shape="312.96,-693.90 322.61,-686.60 332.79,-679.36 343.18,-672.45 354.21,-665.59 363.67,-660.04 371.67,-655.83"/>
    </edge>
    <edge id="4586" from="61" to="67" priority="3" type="highway.residential" spreadType="center" length="18.79" shape="431.72,-606.54 390.73,-649.04">
        <lane id="4586_0" index="0" disallow="pedestrian tram rail_urban rail rail_electric rail_fast ship" speed="36.11" length="18.79" width="3.50" customShape="1" shape="418.82,-623.01 410.95,-628.13 403.07,-633.26"/>
    </edge>
    <edge id="4587" from="67" to="61" priority="3" type="highway.residential" spreadType="center" length="18.78" shape="393.24,-651.47 434.24,-608.97">
        <lane id="4587_0" index="0" disallow="pedestrian tram rail_urban rail rail_electric rail_fast ship" speed="36.11" length="18.78" width="3.50" customShape="1" shape="405.00,-636.18 412.86,-631.06 420.74,-625.93"/>
    </edge>
    <edge id="4589" from="36" to="61" priority="3" type="highway.residential" spreadType="center" length="70.03" shape="510.96,-565.02 432.14,-606.22">
        <lane id="4589_0" index="0" disallow="pedestrian tram rail_urban rail rail_electric rail_fast ship" speed="36.11" length="70.03" width="3.50" customShape="1" shape="510.96,-565.02 502.54,-569.95 485.86,-580.19 451.54,-602.07"/>
    </edge>
    <edge id="4590" from="61" to="27" priority="3" type="highway.residential" spreadType="center" length="70.00" shape="433.76,-609.32 512.82,-567.99">
        <lane id="4590_0" index="0" disallow="pedestrian tram rail_urban rail rail_electric rail_fast ship" speed="36.11" length="70.00" width="3.50" customShape="1" shape="453.42,-605.02 487.73,-583.15 504.39,-572.92 512.82,-567.99"/>
    </edge>
    <edge id="4621" from="63" to="58" priority="3" type="highway.residential" spreadType="center" length="20.30" shape="470.71,-437.64 449.80,-403.03">
        <lane id="4621_0" index="0" disallow="pedestrian tram rail_urban rail rail_electric rail_fast ship" speed="36.11" length="20.30" width="3.50" customShape="1" shape="457.05,-421.99 453.43,-412.51 449.80,-403.03"/>
    </edge>
    <edge id="4622" from="60" to="63" priority="3" type="highway.residential" spreadType="center" length="20.33" shape="446.53,-404.28 467.71,-439.45">
        <lane id="4622_0" index="0" disallow="pedestrian tram rail_urban rail rail_electric rail_fast ship" speed="36.11" length="20.33" width="3.50" customShape="1" shape="446.53,-404.28 450.16,-413.76 453.79,-423.27"/>
    </edge>
    <edge id="4654" from="63" to="64" priority="3" type="highway.residential" spreadType="center" length="137.69" shape="467.53,-437.87 418.99,-567.36">
        <lane id="4654_0" index="0" disallow="pedestrian tram rail_urban rail rail_electric rail_fast ship" speed="36.11" length="137.69" width="3.50" customShape="1" shape="469.79,-460.12 476.32,-471.87 481.02,-480.63 484.27,-487.34 486.59,-492.83 488.42,-497.98 489.79,-502.76 490.84,-507.62 491.52,-512.54 491.80,-517.01 491.74,-518.99 491.40,-520.44 490.80,-521.80 489.69,-523.45 488.08,-525.34 484.67,-528.96 481.04,-532.35 476.81,-535.82 472.37,-539.01 467.34,-542.22 461.30,-545.66 453.77,-549.51 431.74,-559.90"/>
    </edge>
    <edge id="4655" from="64" to="63" priority="3" type="highway.residential" spreadType="center" length="143.38" shape="422.27,-568.59 470.81,-439.09">
        <lane id="4655_0" index="0" disallow="pedestrian tram rail_urban rail rail_electric rail_fast ship" speed="36.11" length="143.38" width="3.50" customShape="1" shape="433.26,-563.05 455.76,-552.43 463.49,-548.45 469.72,-544.87 474.91,-541.51 479.50,-538.15 483.87,-534.51 487.64,-530.94 491.16,-527.13 492.87,-525.02 494.05,-523.12 494.74,-521.46 495.17,-519.70 495.31,-517.38 495.04,-512.68 494.37,-507.52 493.31,-502.43 491.92,-497.44 490.04,-492.07 487.66,-486.36 484.33,-479.42 479.52,-470.43 472.85,-458.42"/>
    </edge>
    <edge id="4660" from="59" to="63" priority="3" type="highway.residential" spreadType="center" length="70.00" shape="545.09,-405.86 468.48,-436.87">