<routes>
	<vehicle depart="0.1" departLane="0" departPos="9.758762255046403" departSpeed="0.69039378" id="334" type="bicycle">
		<route edges=":61_0 4705"/>
	</vehicle>
	<vehicle depart="0.1" departLane="0" departPos="2.5" departSpeed="10.314519" id="312" type="passenger">
		<route edges=":61_4 4586 4557"/>
	</vehicle>
	<vehicle depart="0.1" departLane="0" departPos="11.148063580653295" departSpeed="4.6451359" id="317" type="passenger">
		<route edges=":64_3 4708"/>
	</vehicle>
	<vehicle depart="0.1" departLane="0" departPos="20.168193819807687" departSpeed="9.9789752" id="318" type="passenger">
		<route edges=":64_5 4655 4621"/>
	</vehicle>
	<vehicle depart="0.1" departLane="0" departPos="6.771349534340768" departSpeed="4.2007484" id="323" type="passenger">
		<route edges="4705 4708"/>
	</vehicle>
	<vehicle depart="0.1" departLane="0" departPos="26.786114124508718" departSpeed="2.5637128" id="324" type="passenger">
		<route edges=":61_0 4705 4708"/>
	</vehicle>
	<vehicle depart="0.1" departLane="0" departPos="128.0834763909944" departSpeed="1.6212112" id="328" type="passenger">
		<route edges="4654 4704"/>
	</vehicle>
	<vehicle depart="0.1" departLane="0" departPos="13.982166188986756" departSpeed="0.036637183" id="341" type="passenger">
		<route edges=":61_0 4705"/>
	</vehicle>
	<vehicle depart="0.1" departLane="0" departPos="69.62841382385217" departSpeed="0.51202911" id="347" type="passenger">
		<route edges="4589 4586 4557"/>
	</vehicle>
	<vehicle depart="0.1" departLane="0" departPos="3.75" departSpeed="2.7114393" id="331" type="truck">
		<route edges=":62_1 4549"/>
	</vehicle>
</routes>
