<routes>
	<vehicle depart="0.1" departLane="0" departPos="182.73727992659715" departSpeed="6.9155627" id="38" type="bicycle">
		<route edges="357 210"/>
	</vehicle>
	<vehicle depart="0.1" departLane="0" departPos="70.99846944479779" departSpeed="0.0" id="310" type="bicycle">
		<route edges="151 177"/>
	</vehicle>
	<vehicle depart="0.1" departLane="0" departPos="7.686733225073133" departSpeed="6.8654027" id="363" type="bicycle">
		<route edges=":37_3 366"/>
	</vehicle>
	<vehicle depart="0.1" departLane="0" departPos="30.48605235873407" departSpeed="6.8564195" id="375" type="bicycle">
		<route edges="178 211 372"/>
	</vehicle>
	<vehicle depart="0.1" departLane="0" departPos="42.62764243585738" departSpeed="0.0018774695" id="343" type="bus">
		<route edges="151 177"/>
	</vehicle>
	<vehicle depart="0.1" departLane="0" departPos="67.96161447463359" departSpeed="0.0" id="31" type="passenger">
		<route edges="154 177"/>
	</vehicle>
	<vehicle depart="0.1" departLane="0" departPos="24.489559687499476" departSpeed="0.0" id="34" type="passenger">
		<route edges="367 152"/>
	</vehicle>
	<vehicle depart="0.1" departLane="0" departPos="46.08177560160474" departSpeed="0.0" id="39" type="passenger">
		<route edges="154 177"/>
	</vehicle>
	<vehicle depart="0.1" departLane="0" departPos="60.667691624566174" departSpeed="0.0" id="313" type="passenger">
		<route edges="154 177"/>
	</vehicle>
	<vehicle depart="0.1" departLane="0" departPos="70.55703040821045" departSpeed="0.0" id="314" type="passenger">
		<route edges="151 177"/>
	</vehicle>
	<vehicle depart="0.1" departLane="0" departPos="53.37467697400618" departSpeed="0.0" id="315" type="passenger">
		<route edges="154 177"/>
	</vehicle>
	<vehicle depart="0.1" departLane="0" departPos="16.988380101597436" departSpeed="0.0" id="317" type="passenger">
		<route edges="367 152"/>
	</vehicle>
	<vehicle depart="0.1" departLane="0" departPos="39.188905654859504" departSpeed="0.0" id="318" type="passenger">
		<route edges="154 177"/>
	</vehicle>
	<vehicle depart="0.1" departLane="0" departPos="222.56517036791058" departSpeed="2.7236523e-05" id="319" type="passenger">
		<route edges="357 210"/>
	</vehicle>
	<vehicle depart="0.1" departLane="0" departPos="63.835371379151496" departSpeed="3.264027e-05" id="322" type="passenger">
		<route edges="151 177"/>
	</vehicle>
	<vehicle depart="0.1" departLane="0" departPos="32.500610033730425" departSpeed="0.0" id="323" type="passenger">
		<route edges="154 177"/>
	</vehicle>
	<vehicle depart="0.1" departLane="0" departPos="56.71247797118458" departSpeed="0.00022450693" id="326" type="passenger">
		<route edges="151 177"/>
	</vehicle>
	<vehicle depart="0.1" departLane="0" departPos="9.885281992574175" departSpeed="0.0" id="328" type="passenger">
		<route edges="367 152"/>
	</vehicle>
	<vehicle depart="0.1" departLane="0" departPos="93.22944236744819" departSpeed="0.0" id="329" type="passenger">
		<route edges="211 372"/>
	</vehicle>
	<vehicle depart="0.1" departLane="0" departPos="25.728413667610287" departSpeed="0.0" id="330" type="passenger">
		<route edges="154 177"/>
	</vehicle>
	<vehicle depart="0.1" departLane="0" departPos="49.46979615262454" departSpeed="0.00077388009" id="334" type="passenger">
		<route edges="151 177"/>
	</vehicle>
	<vehicle depart="0.1" departLane="0" departPos="205.41298369103163" departSpeed="0.40906106" id="335" type="passenger">
		<route edges="357 210"/>
	</vehicle>
	<vehicle depart="0.1" departLane="0" departPos="81.33692428480948" departSpeed="0.00071668191" id="336" type="passenger">
		<route edges="211 372"/>
	</vehicle>
	<vehicle depart="0.1" departLane="0" departPos="19.124697260056863" departSpeed="0.0" id="339" type="passenger">
		<route edges="154 177"/>
	</vehicle>
	<vehicle depart="0.1" departLane="0" departPos="196.54336613260395" departSpeed="1.3281777" id="340" type="passenger">
		<route edges="357 210"/>
	</vehicle>
	<vehicle depart="0.1" departLane="0" departPos="74.510824336953" departSpeed="0.0049175993" id="342" type="passenger">
		<route edges="211 372"/>
	</vehicle>
	<vehicle depart="0.1" departLane="0" departPos="28.270019590103445" departSpeed="0.0031648337" id="346" type="passenger">
		<route edges="151 177"/>
	</vehicle>
	<vehicle depart="0.1" departLane="0" departPos="12.422622473423349" departSpeed="1.5298089e-05" id="347" type="passenger">
		<route edges="154 177"/>
	</vehicle>
	<vehicle depart="0.1" departLane="0" departPos="67.3355849922641" departSpeed="0.051020384" id="348" type="passenger">
		<route edges="211 372"/>
	</vehicle>
	<vehicle depart="0.1" departLane="0" departPos="186.28678418402498" departSpeed="2.7623275" id="349" type="passenger">
		<route edges="357 210"/>
	</vehicle>
	<vehicle depart="0.1" departLane="0" departPos="94.56698193443168" departSpeed="0.00012951866" id="350" type="passenger">
		<route edges="210 152"/>
	</vehicle>
	<vehicle depart="0.1" departLane="0" departPos="21.333180327747474" departSpeed="0.0043638879" id="351" type="passenger">
		<route edges="151 177"/>
	</vehicle>
	<vehicle depart="0.1" departLane="0" departPos="59.534899880793006" departSpeed="0.81621367" id="355" type="passenger">
		<route edges="211 372"/>
	</vehicle>
	<vehicle depart="0.1" departLane="0" departPos="23.876725850780694" departSpeed="12.101903" id="359" type="passenger">
		<route edges="210 152"/>
	</vehicle>
	<vehicle depart="0.1" departLane="0" departPos="5.330678798727941" departSpeed="8.0040588e-05" id="364" type="passenger">
		<route edges="154 177"/>
	</vehicle>
	<vehicle depart="0.1" departLane="0" departPos="9.74298477064849" departSpeed="0.0068031457" id="365" type="passenger">
		<route edges="151 177"/>
	</vehicle>
	<vehicle depart="0.1" departLane="0" departPos="2.5" departSpeed="9.7530513" id="368" type="passenger">
		<route edges="358 361"/>
	</vehicle>
	<vehicle depart="0.1" departLane="0" departPos="14.571929473782973" departSpeed="12.829373" id="370" type="passenger">
		<route edges=":37_4 211 372"/>
	</vehicle>
	<vehicle depart="0.1" departLane="0" departPos="2.5" departSpeed="8.3357721" id="371" type="passenger">
		<route edges=":36_4 210 152"/>
	</vehicle>
	<vehicle depart="0.1" departLane="0" departPos="66.74265604699256" departSpeed="11.725312" id="374" type="passenger">
		<route edges="178 211 372"/>
	</vehicle>
	<vehicle depart="0.1" departLane="0" departPos="26.771790444822447" departSpeed="6.9577746" id="376" type="passenger">
		<route edges="373 358 361"/>
	</vehicle>
	<vehicle depart="0.1" departLane="0" departPos="23.339172303679316" departSpeed="8.2599343" id="377" type="passenger">
		<route edges="178 366"/>
	</vehicle>
	<vehicle depart="0.1" departLane="0" departPos="14.806940104981729" departSpeed="5.6783429" id="378" type="passenger">
		<route edges="373 358 361"/>
	</vehicle>
	<vehicle depart="0.1" departLane="0" departPos="10.480862645342604" departSpeed="4.7729546" id="379" type="passenger">
		<route edges="178 366"/>
	</vehicle>
	<vehicle depart="0.1" departLane="0" departPos="5.895489007679761" departSpeed="2.1073534" id="380" type="passenger">
		<route edges="373 358 361"/>
	</vehicle>
	<vehicle depart="0.1" departLane="0" departPos="98.2207783051556" departSpeed="0.0" id="35" type="motorcycle">
		<route edges="211 372"/>
	</vehicle>
	<vehicle depart="0.1" departLane="0" departPos="85.83772781194777" departSpeed="7.4168834e-05" id="332" type="motorcycle">
		<route edges="211 372"/>
	</vehicle>
	<vehicle depart="0.1" departLane="0" departPos="14.300683844720302" departSpeed="0.005297988" id="354" type="motorcycle">
		<route edges="151 177"/>
	</vehicle>
	<vehicle depart="0.1" departLane="0" departPos="232.56613101565597" departSpeed="0.0" id="30" type="truck">
		<route edges="357 210"/>
	</vehicle>
	<vehicle depart="0.1" departLane="0" departPos="34.11928423589403" departSpeed="0.0" id="316" type="truck">
		<route edges="367 152"/>
	</vehicle>
	<vehicle depart="0.1" departLane="0" departPos="215.4020209961894" departSpeed="0.068489404" id="327" type="truck">
		<route edges="357 210"/>
	</vehicle>
</routes>
