<routes>
	<vehicle depart="0.1" departLane="1" departPos="0" departSpeed="11.167252" id="1" type="passenger">
		<route edges="26 28 24"/>
	</vehicle>
	<vehicle depart="0.1" departLane="0" departPos="90.29250626844392" departSpeed="11.366811" id="2" type="passenger">
		<route edges="26 26 28 24"/>
	</vehicle>
	<vehicle depart="0.1" departLane="0" departPos="105.2929676767949" departSpeed="11.366504" id="3" type="passenger">
		<route edges="26 27 24"/>
	</vehicle>
</routes>
