<routes>
	<vehicle depart="0.1" departLane="0" departPos="7.456510201065926" departSpeed="2.7056238" id="31" type="passenger">
		<route edges="58472 58469"/>
	</vehicle>
	<vehicle depart="0.1" departLane="0" departPos="2.5" departSpeed="0.0032653659" id="39" type="passenger">
		<route edges=":51_2 58473"/>
	</vehicle>
	<vehicle depart="0.1" departLane="0" departPos="38.81299851350177" departSpeed="0.0" id="315" type="passenger">
		<route edges=":51_0 58469"/>
	</vehicle>
	<vehicle depart="0.1" departLane="0" departPos="9.6677756075347" departSpeed="0.019901737" id="317" type="passenger">
		<route edges=":51_1 58148"/>
	</vehicle>
	<vehicle depart="0.1" departLane="0" departPos="33.051026190225755" departSpeed="0.91910403" id="321" type="passenger">
		<route edges="58472 58469"/>
	</vehicle>
	<vehicle depart="0.1" departLane="0" departPos="17.715677375027184" departSpeed="1.3014316" id="332" type="passenger">
		<route edges="58472 58469"/>
	</vehicle>
	<vehicle depart="0.1" departLane="0" departPos="21.819545815213765" departSpeed="5.3235656" id="334" type="passenger">
		<route edges=":55_0 58472 58469"/>
	</vehicle>
	<vehicle depart="0.1" departLane="0" departPos="33.42864292262081" departSpeed="13.409247" id="347" type="passenger">
		<route edges=":53_3 58467 58470 58473"/>
	</vehicle>
	<vehicle depart="0.1" departLane="0" departPos="23.543415005422926" departSpeed="0.97055673" id="323" type="motorcycle">
		<route edges="58472 58469"/>
	</vehicle>
	<vehicle depart="0.1" departLane="0" departPos="73.38885209749859" departSpeed="0.0" id="30" type="truck">
		<route edges="58195 58466"/>
	</vehicle>
</routes>
