<routes>
	<vehicle depart="0.1" departLane="0" departPos="13.78203704695216" departSpeed="1.405064" id="325" type="bicycle">
		<route edges="308 305"/>
	</vehicle>
	<vehicle depart="0.1" departLane="0" departPos="15.882855953633872" departSpeed="0.82008144" id="331" type="bus">
		<route edges=":44_0 229"/>
	</vehicle>
	<vehicle depart="0.1" departLane="0" departPos="12.889868398543921" departSpeed="7.966429" id="31" type="passenger">
		<route edges=":44_3 229"/>
	</vehicle>
	<vehicle depart="0.1" departLane="0" departPos="59.77325731830022" departSpeed="0.13172472" id="32" type="passenger">
		<route edges="228 308"/>
	</vehicle>
	<vehicle depart="0.1" departLane="0" departPos="2.5" departSpeed="4.116595" id="326" type="passenger">
		<route edges="308 305"/>
	</vehicle>
	<vehicle depart="0.1" departLane="0" departPos="18.10884064067652" departSpeed="8.8450948" id="329" type="passenger">
		<route edges="309 229"/>
	</vehicle>
	<vehicle depart="0.1" departLane="0" departPos="55.0188139629472" departSpeed="1.5585222" id="335" type="passenger">
		<route edges="311 229"/>
	</vehicle>
	<vehicle depart="0.1" departLane="0" departPos="48.613432287021865" departSpeed="0.39186793" id="339" type="passenger">
		<route edges="311 229"/>
	</vehicle>
	<vehicle depart="0.1" departLane="0" departPos="25.582787579384938" departSpeed="0.54620211" id="342" type="passenger">
		<route edges="311 229"/>
	</vehicle>
	<vehicle depart="0.1" departLane="0" departPos="69.89780532883088" departSpeed="0.0" id="328" type="truck">
		<route edges="228 308"/>
	</vehicle>
</routes>
