<!-- generated on Tue Feb  9 22:14:01 2021 by Eclipse SUMO netconvert Version 1.8.0
<configuration xmlns:xsi="http://www.w3.org/2001/XMLSchema-instance" xsi:noNamespaceSchemaLocation="http://sumo.dlr.de/xsd/netconvertConfiguration.xsd">

    <input>
        <node-files value="./converted_scenarios/scenario-factory/DEU_Hennigsdorf-1_3_I-1-1/DEU_Hennigsdorf-1_3_I-1-1.nod.xml"/>
        <edge-files value="./converted_scenarios/scenario-factory/DEU_Hennigsdorf-1_3_I-1-1/DEU_Hennigsdorf-1_3_I-1-1.edg.xml"/>
        <connection-files value="./converted_scenarios/scenario-factory/DEU_Hennigsdorf-1_3_I-1-1/DEU_Hennigsdorf-1_3_I-1-1.con.xml"/>
        <tllogic-files value="./converted_scenarios/scenario-factory/DEU_Hennigsdorf-1_3_I-1-1/DEU_Hennigsdorf-1_3_I-1-1.tll.xml"/>
        <type-files value="/home/zen/commonroad-interactive-benchmarks/install/commonroad-map-tool/crmapconverter/sumo_map/templates/DEU.typ.xml"/>
    </input>

    <output>
        <output-file value="./converted_scenarios/scenario-factory/DEU_Hennigsdorf-1_3_I-1-1/DEU_Hennigsdorf-1_3_I-1-1.net.xml"/>
    </output>

    <processing>
        <geometry.remove.keep-edges.explicit value="true"/>
        <geometry.avoid-overlap value="true"/>
        <offset.disable-normalization value="true"/>
    </processing>

    <junctions>
        <no-turnarounds value="true"/>
        <junctions.internal-link-detail value="20"/>
    </junctions>

    <report>
        <aggregate-warnings value="5"/>
    </report>

    <random_number>
        <seed value="1234"/>
    </random_number>

</configuration>
--><net xmlns:xsi="http://www.w3.org/2001/XMLSchema-instance" version="1.6" junctionCornerDetail="5" junctionLinkDetail="20" limitTurnSpeed="5.50" xsi:noNamespaceSchemaLocation="http://sumo.dlr.de/xsd/net_file.xsd">

    <location netOffset="0.00,0.00" convBoundary="-239.71,679.03,41.05,935.39" origBoundary="-239.71,679.03,41.05,935.39" projParameter="!"/>

    <type id="highway.bridleway" priority="1" speed="2.78" allow="pedestrian" oneway="1" width="2.00"/>
    <type id="highway.bus_guideway" priority="1" speed="27.78" allow="bus" oneway="1"/>
    <type id="highway.cycleway" priority="1" speed="8.33" allow="bicycle" oneway="0" width="1.00"/>
    <type id="highway.footway" priority="1" speed="2.78" allow="pedestrian" oneway="1" width="2.00"/>
    <type id="highway.ford" priority="1" speed="2.78" allow="army" oneway="0"/>
    <type id="highway.living_street" priority="2" speed="2.78" disallow="tram rail_urban rail rail_electric rail_fast ship" oneway="0"/>
    <type id="highway.motorway" priority="14" speed="39.44" allow="private emergency authority army vip passenger hov taxi bus coach delivery truck trailer motorcycle evehicle custom1 custom2" oneway="1"/>
    <type id="highway.motorway_link" priority="9" speed="22.22" allow="private emergency authority army vip passenger hov taxi bus coach delivery truck trailer motorcycle evehicle custom1 custom2" oneway="1"/>
    <type id="highway.path" priority="1" speed="2.78" allow="pedestrian bicycle" oneway="0" width="2.00"/>
    <type id="highway.pedestrian" priority="1" speed="2.78" allow="pedestrian" oneway="1" width="2.00"/>
    <type id="highway.primary" priority="12" speed="27.78" disallow="pedestrian tram rail_urban rail rail_electric rail_fast ship" oneway="0"/>
    <type id="highway.primary_link" priority="7" speed="22.22" disallow="pedestrian tram rail_urban rail rail_electric rail_fast ship" oneway="0"/>
    <type id="highway.raceway" priority="15" speed="83.33" allow="vip" oneway="0"/>
    <type id="highway.residential" priority="3" speed="13.89" disallow="pedestrian tram rail_urban rail rail_electric rail_fast ship" oneway="0"/>
    <type id="highway.secondary" priority="11" speed="27.78" disallow="pedestrian tram rail_urban rail rail_electric rail_fast ship" oneway="0"/>
    <type id="highway.secondary_link" priority="6" speed="22.22" disallow="pedestrian tram rail_urban rail rail_electric rail_fast ship" oneway="0"/>
    <type id="highway.service" priority="1" speed="5.56" allow="pedestrian delivery bicycle" oneway="0"/>
    <type id="highway.stairs" priority="1" speed="1.39" allow="pedestrian" oneway="1" width="2.00"/>
    <type id="highway.step" priority="1" speed="1.39" allow="pedestrian" oneway="1" width="2.00"/>
    <type id="highway.steps" priority="1" speed="1.39" allow="pedestrian" oneway="1" width="2.00"/>
    <type id="highway.tertiary" priority="10" speed="22.22" disallow="pedestrian tram rail_urban rail rail_electric rail_fast ship" oneway="0"/>
    <type id="highway.tertiary_link" priority="5" speed="22.22" disallow="pedestrian tram rail_urban rail rail_electric rail_fast ship" oneway="0"/>
    <type id="highway.track" priority="1" speed="5.56" allow="pedestrian motorcycle moped bicycle" oneway="0"/>
    <type id="highway.trunk" priority="13" speed="27.78" disallow="pedestrian bicycle tram rail_urban rail rail_electric rail_fast ship" oneway="0"/>
    <type id="highway.trunk_link" priority="8" speed="22.22" disallow="pedestrian bicycle tram rail_urban rail rail_electric rail_fast ship" oneway="0"/>
    <type id="highway.unclassified" priority="4" speed="13.89" disallow="pedestrian tram rail_urban rail rail_electric rail_fast ship" oneway="0"/>
    <type id="highway.unsurfaced" priority="1" speed="8.33" disallow="tram rail_urban rail rail_electric rail_fast ship" oneway="0"/>
    <type id="railway.highspeed" priority="21" speed="69.44" allow="rail_fast" oneway="1"/>
    <type id="railway.light_rail" priority="19" speed="27.78" allow="rail_urban" oneway="1"/>
    <type id="railway.preserved" priority="16" speed="27.78" allow="rail" oneway="1"/>
    <type id="railway.rail" priority="20" speed="44.44" allow="rail" oneway="1"/>
    <type id="railway.subway" priority="18" speed="27.78" allow="rail_urban" oneway="1"/>
    <type id="railway.tram" priority="17" speed="13.89" allow="tram" oneway="1"/>

    <edge id=":34_0" function="internal">
        <lane id=":34_0_0" index="0" disallow="pedestrian tram rail_urban rail rail_electric rail_fast ship" speed="36.11" length="2.98" width="3.50" shape="-192.54,896.16 -191.63,893.32"/>
    </edge>
    <edge id=":35_0" function="internal">
        <lane id=":35_0_0" index="0" disallow="pedestrian tram rail_urban rail rail_electric rail_fast ship" speed="36.11" length="3.00" width="3.50" shape="-185.98,876.85 -184.98,874.02"/>
    </edge>
    <edge id=":37_0" function="internal">
        <lane id=":37_0_0" index="0" disallow="pedestrian tram rail_urban rail rail_electric rail_fast ship" speed="36.11" length="3.00" width="3.50" shape="-181.68,875.19 -182.68,878.02"/>
    </edge>
    <edge id=":39_0" function="internal">
        <lane id=":39_0_0" index="0" disallow="pedestrian tram rail_urban rail rail_electric rail_fast ship" speed="36.11" length="3.00" width="3.50" shape="-171.39,846.07 -172.39,848.90"/>
    </edge>
    <edge id=":40_0" function="internal">
        <lane id=":40_0_0" index="0" disallow="pedestrian tram rail_urban rail rail_electric rail_fast ship" speed="36.11" length="3.00" width="3.50" shape="-175.69,847.73 -174.70,844.90"/>
    </edge>
    <edge id=":42_0" function="internal">
        <lane id=":42_0_0" index="0" disallow="pedestrian tram rail_urban rail rail_electric rail_fast ship" speed="9.89" length="24.63" width="3.50" shape="-127.92,774.17 -131.35,772.96 -134.85,772.05 -137.15,771.68 -139.47,771.56 -140.56,771.62 -141.64,771.77 -142.67,772.03 -143.64,772.39 -144.54,772.86 -145.35,773.45 -146.08,774.15 -146.72,774.95 -147.26,775.85 -147.72,776.82 -148.10,777.86 -148.40,778.98"/>
    </edge>
    <edge id=":42_1" function="internal">
        <lane id=":42_1_0" index="0" disallow="pedestrian tram rail_urban rail rail_electric rail_fast ship" speed="12.91" length="36.52" width="3.50" shape="-127.92,774.17 -131.27,772.71 -134.49,770.95 -136.57,769.54 -138.51,767.94 -140.28,766.12 -141.83,764.06 -143.08,761.80 -144.00,759.38 -144.55,756.85 -144.76,754.30 -144.66,751.77 -144.29,749.27 -143.38,745.71"/>
    </edge>
    <edge id=":42_2" function="internal">
        <lane id=":42_2_0" index="0" disallow="pedestrian tram rail_urban rail rail_electric rail_fast ship" speed="11.97" length="31.22" width="3.50" shape="-140.03,746.74 -140.84,749.87 -141.14,752.00 -141.22,754.15 -141.04,756.30 -140.56,758.40 -139.79,760.40 -138.73,762.28 -137.41,763.98 -135.90,765.51 -134.23,766.87 -132.45,768.08 -129.61,769.62 -126.65,770.91"/>
    </edge>
    <edge id=":42_3" function="internal">
        <lane id=":42_3_0" index="0" disallow="pedestrian tram rail_urban rail rail_electric rail_fast ship" speed="36.11" length="33.31" width="3.50" shape="-140.03,746.74 -140.93,749.69 -143.94,760.73 -148.40,778.98"/>
    </edge>
    <edge id=":42_4" function="internal">
        <lane id=":42_4_0" index="0" disallow="pedestrian tram rail_urban rail rail_electric rail_fast ship" speed="36.11" length="33.55" width="3.50" shape="-151.81,778.18 -147.32,759.82 -144.29,748.69 -143.38,745.71"/>
    </edge>
    <edge id=":42_5" function="internal">
        <lane id=":42_5_0" index="0" disallow="pedestrian tram rail_urban rail rail_electric rail_fast ship" speed="11.00" length="30.75" width="3.50" shape="-151.81,778.18 -151.44,776.80 -150.97,775.48 -150.40,774.21 -149.70,773.00 -148.87,771.88 -147.91,770.87 -146.81,770.00 -145.61,769.30 -144.33,768.75 -142.98,768.36 -141.61,768.12 -140.22,768.01 -137.43,768.10 -134.66,768.50 -130.60,769.53 -126.65,770.91"/>
    </edge>
    <edge id=":43_0" function="internal">
        <lane id=":43_0_0" index="0" disallow="pedestrian tram rail_urban rail rail_electric rail_fast ship" speed="11.42" length="34.60" width="3.50" shape="-136.79,799.12 -138.91,798.17 -141.09,797.43 -143.34,796.95 -144.49,796.84 -145.65,796.83 -146.79,796.92 -147.93,797.13 -149.04,797.45 -150.11,797.88 -151.13,798.41 -152.09,799.04 -153.00,799.76 -153.85,800.54 -155.37,802.27 -156.68,804.17 -157.82,806.18 -159.25,809.32 -160.43,812.58 -161.10,814.78"/>
    </edge>
    <edge id=":43_1" function="internal">
        <lane id=":43_1_0" index="0" disallow="pedestrian tram rail_urban rail rail_electric rail_fast ship" speed="36.11" length="42.92" width="3.50" shape="-136.79,799.12 -139.48,797.93 -142.26,797.01 -145.12,796.33 -149.06,795.75 -154.09,795.42 -164.38,795.31 -170.66,795.04 -174.89,794.56 -179.06,793.74"/>
    </edge>
    <edge id=":43_2" function="internal">
        <lane id=":43_2_0" index="0" disallow="pedestrian tram rail_urban rail rail_electric rail_fast ship" speed="12.28" length="27.77" width="3.50" shape="-136.79,799.12 -138.92,798.00 -142.00,796.16 -144.94,794.05 -146.81,792.43 -148.53,790.62 -150.03,788.59 -150.69,787.45 -151.25,786.26 -151.69,785.01 -152.00,783.71 -152.18,782.38 -152.21,781.04 -152.10,779.71 -151.86,778.38"/>
    </edge>
    <edge id=":43_3" function="internal">
        <lane id=":43_3_0" index="0" disallow="pedestrian tram rail_urban rail rail_electric rail_fast ship" speed="11.20" length="23.11" width="3.50" shape="-148.45,779.15 -148.64,780.23 -148.71,781.27 -148.66,782.32 -148.50,783.35 -148.21,784.36 -147.82,785.34 -147.34,786.27 -146.78,787.16 -145.48,788.80 -143.99,790.28 -142.38,791.62 -139.80,793.42 -137.09,795.02 -135.24,795.99"/>
    </edge>
    <edge id=":43_4" function="internal">
        <lane id=":43_4_0" index="0" disallow="pedestrian tram rail_urban rail rail_electric rail_fast ship" speed="36.11" length="37.84" width="3.50" shape="-148.44,779.15 -149.83,784.26 -151.87,790.22 -158.46,806.81 -160.50,812.77 -161.10,814.78"/>
    </edge>
    <edge id=":43_5" function="internal">
        <lane id=":43_5_0" index="0" disallow="pedestrian tram rail_urban rail rail_electric rail_fast ship" speed="12.84" length="38.87" width="3.50" shape="-148.44,779.15 -149.15,781.69 -150.07,784.11 -151.24,786.42 -152.70,788.56 -154.45,790.47 -155.43,791.31 -156.48,792.07 -157.58,792.75 -159.93,793.84 -162.41,794.58 -164.96,795.02 -167.55,795.19 -171.43,795.06 -175.28,794.54 -179.06,793.74"/>
    </edge>
    <edge id=":43_6" function="internal">
        <lane id=":43_6_0" index="0" disallow="pedestrian tram rail_urban rail rail_electric rail_fast ship" speed="11.87" length="33.26" width="3.50" shape="-178.26,790.33 -174.84,791.06 -171.42,791.53 -167.99,791.67 -165.77,791.54 -163.59,791.19 -161.50,790.59 -159.52,789.70 -158.63,789.18 -157.77,788.57 -156.98,787.92 -155.49,786.35 -154.26,784.58 -153.26,782.63 -152.47,780.56 -151.86,778.38"/>
    </edge>
    <edge id=":43_7" function="internal">
        <lane id=":43_7_0" index="0" disallow="pedestrian tram rail_urban rail rail_electric rail_fast ship" speed="36.11" length="43.71" width="3.50" shape="-178.26,790.33 -174.17,791.14 -170.03,791.61 -163.79,791.89 -153.39,792.04 -148.20,792.39 -144.08,793.01 -141.05,793.74 -138.08,794.73 -135.24,795.99"/>
    </edge>
    <edge id=":43_8" function="internal">
        <lane id=":43_8_0" index="0" disallow="pedestrian tram rail_urban rail rail_electric rail_fast ship" speed="36.11" length="37.65" width="3.50" shape="-164.47,813.82 -163.85,811.76 -161.79,805.74 -155.20,789.19 -153.20,783.34 -151.86,778.38"/>
    </edge>
    <edge id=":43_9" function="internal">
        <lane id=":43_9_0" index="0" disallow="pedestrian tram rail_urban rail rail_electric rail_fast ship" speed="12.38" length="40.89" width="3.50" shape="-164.47,813.82 -163.71,811.33 -162.36,807.67 -160.71,804.10 -159.37,801.77 -157.79,799.57 -155.97,797.56 -154.90,796.61 -153.77,795.77 -152.56,795.02 -151.27,794.39 -149.93,793.89 -148.54,793.53 -147.12,793.31 -145.71,793.22 -144.30,793.26 -142.88,793.42 -140.23,794.00 -137.67,794.89 -135.24,795.99"/>
    </edge>
    <edge id=":44_0" function="internal">
        <lane id=":44_0_0" index="0" disallow="pedestrian tram rail_urban rail rail_electric rail_fast ship" speed="10.71" length="29.24" width="3.50" shape="-22.70,861.33 -25.72,859.83 -27.83,859.03 -30.01,858.46 -31.12,858.28 -32.24,858.18 -33.37,858.18 -34.49,858.28 -35.60,858.49 -36.67,858.82 -37.71,859.26 -38.69,859.80 -39.62,860.44 -40.48,861.17 -41.28,861.96 -42.69,863.71 -43.89,865.62 -44.90,867.64 -45.75,869.69"/>
    </edge>
    <edge id=":44_1" function="internal">
        <lane id=":44_1_0" index="0" disallow="pedestrian tram rail_urban rail rail_electric rail_fast ship" speed="36.11" length="39.02" width="3.50" shape="-22.70,861.33 -49.69,846.48 -56.91,842.57"/>
    </edge>
    <edge id=":44_2" function="internal">
        <lane id=":44_2_0" index="0" disallow="pedestrian tram rail_urban rail rail_electric rail_fast ship" speed="36.11" length="39.04" width="3.50" shape="-55.25,839.49 -48.02,843.41 -21.02,858.26"/>
    </edge>
    <edge id=":44_3" function="internal">
        <lane id=":44_3_0" index="0" disallow="pedestrian tram rail_urban rail rail_electric rail_fast ship" speed="13.08" length="35.19" width="3.50" shape="-55.25,839.49 -53.12,840.75 -51.08,842.21 -49.19,843.88 -47.48,845.77 -46.02,847.89 -44.86,850.19 -44.03,852.63 -43.54,855.15 -43.37,857.68 -43.46,860.19 -43.79,862.67 -44.61,866.25 -45.75,869.69"/>
    </edge>
    <edge id=":44_4" function="internal">
        <lane id=":44_4_0" index="0" disallow="pedestrian tram rail_urban rail rail_electric rail_fast ship" speed="12.14" length="30.15" width="3.50" shape="-49.03,868.49 -48.02,865.42 -47.29,862.27 -47.00,860.14 -46.90,857.99 -47.04,855.84 -47.43,853.72 -48.10,851.67 -49.05,849.74 -50.26,847.96 -51.70,846.35 -53.31,844.92 -55.06,843.67 -56.91,842.57"/>
    </edge>
    <edge id=":44_5" function="internal">
        <lane id=":44_5_0" index="0" disallow="pedestrian tram rail_urban rail rail_electric rail_fast ship" speed="11.74" length="35.42" width="3.50" shape="-49.03,868.49 -48.04,866.07 -46.85,863.71 -45.42,861.44 -43.73,859.34 -42.73,858.34 -41.66,857.43 -40.49,856.63 -39.24,855.94 -37.93,855.38 -36.55,854.96 -35.16,854.69 -33.75,854.57 -32.34,854.57 -30.96,854.69 -29.58,854.91 -27.00,855.59 -24.50,856.53 -21.02,858.26"/>
    </edge>
    <edge id=":45_0" function="internal">
        <lane id=":45_0_0" index="0" disallow="pedestrian tram rail_urban rail rail_electric rail_fast ship" speed="36.11" length="47.76" width="3.50" shape="-76.41,832.04 -94.88,822.05 -118.31,809.11"/>
    </edge>
    <edge id=":45_1" function="internal">
        <lane id=":45_1_0" index="0" disallow="pedestrian tram rail_urban rail rail_electric rail_fast ship" speed="22.56" length="40.09" width="3.50" shape="-76.41,832.04 -85.07,827.29 -86.07,826.54 -87.00,825.68 -87.82,824.74 -88.54,823.72 -89.17,822.62 -90.09,820.44 -90.73,818.18 -91.31,814.84 -92.20,805.18 -92.66,802.13 -93.42,799.18"/>
    </edge>
    <edge id=":45_2" function="internal">
        <lane id=":45_2_0" index="0" disallow="pedestrian tram rail_urban rail rail_electric rail_fast ship" speed="21.86" length="37.78" width="3.50" shape="-90.17,797.90 -89.33,801.11 -88.91,804.18 -88.25,813.46 -87.81,816.52 -87.30,818.52 -86.54,820.44 -86.05,821.35 -85.47,822.20 -84.80,822.99 -84.05,823.70 -83.23,824.33 -74.74,828.96"/>
    </edge>
    <edge id=":45_3" function="internal">
        <lane id=":45_3_0" index="0" disallow="pedestrian tram rail_urban rail rail_electric rail_fast ship" speed="11.26" length="48.57" width="3.50" shape="-90.17,797.90 -89.08,801.48 -88.31,804.93 -88.06,806.76 -87.96,808.63 -88.07,810.56 -88.54,812.57 -89.55,814.52 -91.19,816.11 -93.19,817.05 -95.21,817.42 -97.16,817.42 -99.02,817.20 -100.80,816.83 -102.55,816.34 -105.87,815.19 -109.11,813.83 -113.78,811.57 -118.31,809.11"/>
    </edge>
    <edge id=":45_4" function="internal">
        <lane id=":45_4_0" index="0" disallow="pedestrian tram rail_urban rail rail_electric rail_fast ship" speed="10.10" length="38.73" width="3.50" shape="-116.61,806.05 -112.68,808.19 -108.67,810.15 -105.93,811.33 -103.13,812.35 -101.70,812.78 -100.26,813.13 -98.79,813.37 -97.30,813.47 -95.82,813.35 -94.40,812.91 -93.19,812.06 -92.35,810.85 -91.89,809.43 -91.73,807.95 -91.77,806.47 -91.94,804.99 -92.56,802.07 -93.42,799.18"/>
    </edge>
    <edge id=":45_5" function="internal">
        <lane id=":45_5_0" index="0" disallow="pedestrian tram rail_urban rail rail_electric rail_fast ship" speed="36.11" length="47.73" width="3.50" shape="-116.61,806.05 -93.20,818.98 -74.74,828.96"/>
    </edge>

    <edge id="195" from="45" to="42" priority="3" type="highway.residential" spreadType="center" length="44.18" shape="-98.71,812.10 -140.97,766.97">
        <lane id="195_0" index="0" disallow="pedestrian tram rail_urban rail rail_electric rail_fast ship" speed="36.11" length="44.18" width="3.50" customShape="1" shape="-93.42,799.18 -94.51,796.41 -95.94,793.76 -97.68,791.30 -99.69,789.06 -101.92,787.03 -104.73,784.92 -108.14,782.80 -112.14,780.70 -117.64,778.24 -127.94,774.16"/>
    </edge>
    <edge id="196" from="42" to="45" priority="3" type="highway.residential" spreadType="center" length="47.03" shape="-138.42,764.58 -96.16,809.71">
        <lane id="196_0" index="0" disallow="pedestrian tram rail_urban rail rail_electric rail_fast ship" speed="36.11" length="47.03" width="3.50" customShape="1" shape="-126.65,770.91 -115.97,775.14 -110.20,777.76 -105.96,780.02 -102.33,782.33 -99.33,784.64 -96.93,786.89 -94.75,789.37 -92.86,792.10 -91.30,795.03 -90.17,797.90"/>
    </edge>
    <edge id="199" from="40" to="43" priority="3" type="highway.residential" spreadType="center" length="32.74" shape="-175.19,846.32 -158.55,795.07">
        <lane id="199_0" index="0" disallow="pedestrian tram rail_urban rail rail_electric rail_fast ship" speed="36.11" length="32.74" width="3.50" customShape="1" shape="-174.70,844.90 -172.40,838.36 -169.60,830.40 -169.56,830.28 -169.52,830.16 -166.62,821.14 -164.54,814.07 -164.50,813.95 -164.46,813.81"/>
    </edge>
    <edge id="201" from="42" to="43" priority="3" type="highway.residential" spreadType="center" length="0.22" shape="-138.18,766.65 -155.43,796.62">
        <lane id="201_0" index="0" disallow="pedestrian tram rail_urban rail rail_electric rail_fast ship" speed="36.11" length="0.22" width="3.50" customShape="1" shape="-148.40,778.98 -148.45,779.19"/>
    </edge>
    <edge id="202" from="43" to="42" priority="3" type="highway.residential" spreadType="center" length="0.24" shape="-158.46,794.87 -141.21,764.90">
        <lane id="202_0" index="0" disallow="pedestrian tram rail_urban rail rail_electric rail_fast ship" speed="36.11" length="0.24" width="3.50" customShape="1" shape="-151.86,778.38 -151.83,778.27 -151.80,778.15"/>
    </edge>
    <edge id="204" from="26" to="42" priority="3" type="highway.residential" spreadType="center" length="70.05" shape="-118.75,680.05 -138.00,766.19">
        <lane id="204_0" index="0" disallow="pedestrian tram rail_urban rail rail_electric rail_fast ship" speed="36.11" length="70.05" width="3.50" customShape="1" shape="-118.75,680.05 -140.05,746.78"/>
    </edge>
    <edge id="205" from="42" to="24" priority="3" type="highway.residential" spreadType="center" length="69.99" shape="-141.41,765.43 -122.10,679.03">
        <lane id="205_0" index="0" disallow="pedestrian tram rail_urban rail rail_electric rail_fast ship" speed="36.11" length="69.99" width="3.50" customShape="1" shape="-143.38,745.71 -122.10,679.03"/>
    </edge>
    <edge id="228" from="32" to="44" priority="3" type="highway.residential" spreadType="center" length="70.00" shape="-73.18,934.17 -43.40,855.98">
        <lane id="228_0" index="0" disallow="pedestrian tram rail_urban rail rail_electric rail_fast ship" speed="36.11" length="70.00" width="3.50" customShape="1" shape="-73.18,934.17 -70.59,926.72 -60.62,900.27 -49.03,868.47"/>
    </edge>
    <edge id="229" from="44" to="28" priority="3" type="highway.residential" spreadType="center" length="70.00" shape="-40.13,857.22 -69.90,935.39">
        <lane id="229_0" index="0" disallow="pedestrian tram rail_urban rail rail_electric rail_fast ship" speed="36.11" length="70.00" width="3.50" customShape="1" shape="-45.75,869.69 -57.31,901.39 -67.24,927.76 -69.90,935.39"/>
    </edge>
    <edge id="231" from="39" to="37" priority="3" type="highway.residential" spreadType="center" length="27.88">
        <lane id="231_0" index="0" disallow="pedestrian tram rail_urban rail rail_electric rail_fast ship" speed="36.11" length="27.88" width="3.50" customShape="1" shape="-172.39,848.90 -177.03,862.04 -181.68,875.19"/>
    </edge>
    <edge id="232" from="35" to="40" priority="3" type="highway.residential" spreadType="center" length="27.88">
        <lane id="232_0" index="0" disallow="pedestrian tram rail_urban rail rail_electric rail_fast ship" speed="36.11" length="27.88" width="3.50" customShape="1" shape="-184.98,874.02 -180.33,860.88 -175.69,847.73"/>
    </edge>
    <edge id="302" from="43" to="18" priority="3" type="highway.residential" spreadType="center" length="70.00" shape="-157.60,797.27 -239.71,759.69">
        <lane id="302_0" index="0" disallow="pedestrian tram rail_urban rail rail_electric rail_fast ship" speed="36.11" length="70.00" width="3.50" customShape="1" shape="-179.06,793.74 -181.56,793.09 -186.94,791.40 -192.68,789.18 -198.26,786.61 -204.61,783.26 -211.65,779.05 -219.78,773.70 -234.85,763.06 -239.71,759.69"/>
    </edge>
    <edge id="303" from="31" to="43" priority="3" type="highway.residential" spreadType="center" length="70.08" shape="-238.79,756.06 -156.14,794.09">
        <lane id="303_0" index="0" disallow="pedestrian tram rail_urban rail rail_electric rail_fast ship" speed="36.11" length="70.08" width="3.50" customShape="1" shape="-238.79,756.06 -232.96,760.11 -218.03,770.66 -210.02,775.94 -203.11,780.08 -196.91,783.38 -191.46,785.89 -185.88,788.06 -180.64,789.71 -178.18,790.35"/>
    </edge>
    <edge id="305" from="45" to="43" priority="3" type="highway.residential" spreadType="center" length="21.10" shape="-97.85,812.58 -157.34,797.36">
        <lane id="305_0" index="0" disallow="pedestrian tram rail_urban rail rail_electric rail_fast ship" speed="36.11" length="21.10" width="3.50" customShape="1" shape="-118.31,809.11 -126.83,804.36 -136.87,799.08"/>
    </edge>
    <edge id="306" from="43" to="45" priority="3" type="highway.residential" spreadType="center" length="21.17" shape="-156.47,793.97 -96.99,809.19">
        <lane id="306_0" index="0" disallow="pedestrian tram rail_urban rail rail_electric rail_fast ship" speed="36.11" length="21.17" width="3.50" customShape="1" shape="-135.24,795.99 -125.17,801.28 -116.61,806.05"/>
    </edge>
    <edge id="308" from="44" to="45" priority="3" type="highway.residential" spreadType="center" length="22.16" shape="-42.88,857.99 -98.61,812.20">
        <lane id="308_0" index="0" disallow="pedestrian tram rail_urban rail rail_electric rail_fast ship" speed="36.11" length="22.16" width="3.50" customShape="1" shape="-56.91,842.57 -70.46,835.26 -76.41,832.04"/>
    </edge>
    <edge id="309" from="45" to="44" priority="3" type="highway.residential" spreadType="center" length="22.18" shape="-96.39,809.49 -40.66,855.28">
        <lane id="309_0" index="0" disallow="pedestrian tram rail_urban rail rail_electric rail_fast ship" speed="36.11" length="22.18" width="3.50" customShape="1" shape="-74.74,828.96 -68.80,832.18 -55.23,839.50"/>
    </edge>
    <edge id="311" from="33" to="44" priority="3" type="highway.residential" spreadType="center" length="70.02" shape="39.37,893.65 -42.50,858.23">
        <lane id="311_0" index="0" disallow="pedestrian tram rail_urban rail rail_electric rail_fast ship" speed="36.11" length="70.02" width="3.50" customShape="1" shape="39.37,893.65 28.56,888.46 14.98,881.78 -0.19,873.78 -22.72,861.32"/>
    </edge>
    <edge id="312" from="44" to="27" priority="3" type="highway.residential" spreadType="center" length="69.99" shape="-41.11,855.02 41.05,890.57">
        <lane id="312_0" index="0" disallow="pedestrian tram rail_urban rail rail_electric rail_fast ship" speed="36.11" length="69.99" width="3.50" customShape="1" shape="-21.02,858.26 1.48,870.70 16.60,878.67 30.14,885.34 41.05,890.57"/>
    </edge>
    <edge id="550" from="37" to="38" priority="3" type="highway.residential" spreadType="center" length="38.78">
        <lane id="550_0" index="0" disallow="pedestrian tram rail_urban rail rail_electric rail_fast ship" speed="36.11" length="38.78" width="3.50" customShape="1" shape="-182.68,878.02 -182.88,878.59 -188.70,895.57 -188.73,895.68 -188.77,895.80 -191.81,905.87 -194.33,915.00"/>
    </edge>
    <edge id="551" from="34" to="35" priority="3" type="highway.residential" spreadType="center" length="17.41">
        <lane id="551_0" index="0" disallow="pedestrian tram rail_urban rail rail_electric rail_fast ship" speed="36.11" length="17.41" width="3.50" customShape="1" shape="-191.63,893.32 -186.18,877.43 -185.98,876.85"/>
    </edge>
    <edge id="619" from="36" to="34" priority="3" type="highway.residential" spreadType="center" length="18.65">
        <lane id="619_0" index="0" disallow="pedestrian tram rail_urban rail rail_electric rail_fast ship" speed="36.11" length="18.65" width="3.50" customShape="1" shape="-197.71,914.08 -195.17,904.89 -192.54,896.16"/>
    </edge>
    <edge id="668" from="43" to="39" priority="3" type="highway.residential" spreadType="center" length="32.95" shape="-155.22,796.15 -171.89,847.48">
        <lane id="668_0" index="0" disallow="pedestrian tram rail_urban rail rail_electric rail_fast ship" speed="36.11" length="32.95" width="3.50" customShape="1" shape="-161.10,814.78 -161.14,814.91 -161.18,815.03 -163.27,822.17 -166.21,831.28 -166.26,831.42 -166.30,831.55 -169.10,839.52 -171.39,846.07"/>
    </edge>

    <junction id="18" type="dead_end" x="-239.71" y="759.69" incLanes="302_0" intLanes="" shape="-240.71,761.12 -238.71,758.25" rightOfWay="edgePriority"/>
    <junction id="24" type="dead_end" x="-122.10" y="679.03" incLanes="205_0" intLanes="" shape="-123.76,678.50 -120.43,679.56" rightOfWay="edgePriority"/>
    <junction id="26" type="dead_end" x="-118.75" y="680.05" incLanes="" intLanes="" shape="-120.42,679.52 -117.08,680.58" rightOfWay="edgePriority"/>
    <junction id="27" type="dead_end" x="41.05" y="890.57" incLanes="312_0" intLanes="" shape="41.81,889.00 40.29,892.15" rightOfWay="edgePriority"/>
    <junction id="28" type="dead_end" x="-69.90" y="935.39" incLanes="229_0" intLanes="" shape="-68.25,935.96 -71.55,934.81" rightOfWay="edgePriority"/>
    <junction id="31" type="dead_end" x="-238.79" y="756.06" incLanes="" intLanes="" shape="-239.79,757.49 -237.80,754.62" rightOfWay="edgePriority"/>
    <junction id="32" type="dead_end" x="-73.18" y="934.17" incLanes="" intLanes="" shape="-71.53,934.74 -74.83,933.59" rightOfWay="edgePriority"/>
    <junction id="33" type="dead_end" x="39.37" y="893.65" incLanes="" intLanes="" shape="40.13,892.07 38.61,895.23" rightOfWay="edgePriority"/>
    <junction id="34" type="priority" x="-192.11" y="894.73" incLanes="619_0" intLanes=":34_0_0" shape="-189.96,893.86 -193.29,892.78 -194.21,895.65 -190.86,896.66" rightOfWay="edgePriority">
        <request index="0" response="0" foes="0" cont="0"/>
    </junction>
    <junction id="35" type="priority" x="-185.48" y="875.44" incLanes="551_0" intLanes=":35_0_0" shape="-183.33,874.60 -186.63,873.44 -187.63,876.27 -184.33,877.43" rightOfWay="edgePriority">
        <request index="0" response="0" foes="0" cont="0"/>
    </junction>
    <junction id="36" type="dead_end" x="-197.71" y="914.08" incLanes="" intLanes="" shape="-196.02,914.55 -199.39,913.62" rightOfWay="edgePriority"/>
    <junction id="37" type="priority" x="-182.18" y="876.60" incLanes="231_0" intLanes=":37_0_0" shape="-180.03,875.77 -183.33,874.60 -184.33,877.43 -181.03,878.60" rightOfWay="edgePriority">
        <request index="0" response="0" foes="0" cont="0"/>
    </junction>
    <junction id="38" type="dead_end" x="-194.33" y="915.00" incLanes="550_0" intLanes="" shape="-192.64,915.47 -196.02,914.53" rightOfWay="edgePriority"/>