<routes>
	<vehicle depart="0.1" departLane="0" departPos="27.91461175785669" departSpeed="14.807715" id="342" type="passenger">
		<route edges=":22_2 14234 14942"/>
	</vehicle>
	<vehicle depart="0.1" departLane="0" departPos="6.5208625241974065" departSpeed="9.3195003" id="345" type="passenger">
		<route edges=":22_1 14460"/>
	</vehicle>
	<vehicle depart="0.1" departLane="0" departPos="26.868643010045155" departSpeed="8.9042411" id="347" type="passenger">
		<route edges="18088 14047 14819 14234"/>
	</vehicle>
	<vehicle depart="0.1" departLane="0" departPos="14.33826883780227" departSpeed="8.0552506" id="348" type="passenger">
		<route edges="17931 14047 14819"/>
	</vehicle>
	<vehicle depart="0.1" departLane="0" departPos="8.922143365292888" departSpeed="0.31249695" id="30" type="truck">
		<route edges=":22_0 14234"/>
	</vehicle>
</routes>
