<!-- generated on Tue Feb  9 22:15:35 2021 by Eclipse SUMO netconvert Version 1.8.0
<configuration xmlns:xsi="http://www.w3.org/2001/XMLSchema-instance" xsi:noNamespaceSchemaLocation="http://sumo.dlr.de/xsd/netconvertConfiguration.xsd">

    <input>
        <node-files value="./converted_scenarios/scenario-factory/BEL_Putte-11_4_I-1-1/BEL_Putte-11_4_I-1-1.nod.xml"/>
        <edge-files value="./converted_scenarios/scenario-factory/BEL_Putte-11_4_I-1-1/BEL_Putte-11_4_I-1-1.edg.xml"/>
        <connection-files value="./converted_scenarios/scenario-factory/BEL_Putte-11_4_I-1-1/BEL_Putte-11_4_I-1-1.con.xml"/>
        <tllogic-files value="./converted_scenarios/scenario-factory/BEL_Putte-11_4_I-1-1/BEL_Putte-11_4_I-1-1.tll.xml"/>
        <type-files value="/home/zen/commonroad-interactive-benchmarks/install/commonroad-map-tool/crmapconverter/sumo_map/templates/DEU.typ.xml"/>
    </input>

    <output>
        <output-file value="./converted_scenarios/scenario-factory/BEL_Putte-11_4_I-1-1/BEL_Putte-11_4_I-1-1.net.xml"/>
    </output>

    <processing>
        <geometry.remove.keep-edges.explicit value="true"/>
        <geometry.avoid-overlap value="true"/>
        <offset.disable-normalization value="true"/>
    </processing>

    <junctions>
        <no-turnarounds value="true"/>
        <junctions.internal-link-detail value="20"/>
    </junctions>

    <report>
        <aggregate-warnings value="5"/>
    </report>

    <random_number>
        <seed value="1234"/>
    </random_number>

</configuration>
--><net xmlns:xsi="http://www.w3.org/2001/XMLSchema-instance" version="1.6" junctionCornerDetail="5" junctionLinkDetail="20" limitTurnSpeed="5.50" xsi:noNamespaceSchemaLocation="http://sumo.dlr.de/xsd/net_file.xsd">

    <location netOffset="0.00,0.00" convBoundary="233.31,-517.33,354.75,-409.12" origBoundary="233.31,-517.33,354.75,-409.12" projParameter="!"/>

    <type id="highway.bridleway" priority="1" speed="2.78" allow="pedestrian" oneway="1" width="2.00"/>
    <type id="highway.bus_guideway" priority="1" speed="27.78" allow="bus" oneway="1"/>
    <type id="highway.cycleway" priority="1" speed="8.33" allow="bicycle" oneway="0" width="1.00"/>
    <type id="highway.footway" priority="1" speed="2.78" allow="pedestrian" oneway="1" width="2.00"/>
    <type id="highway.ford" priority="1" speed="2.78" allow="army" oneway="0"/>
    <type id="highway.living_street" priority="2" speed="2.78" disallow="tram rail_urban rail rail_electric rail_fast ship" oneway="0"/>
    <type id="highway.motorway" priority="14" speed="39.44" allow="private emergency authority army vip passenger hov taxi bus coach delivery truck trailer motorcycle evehicle custom1 custom2" oneway="1"/>
    <type id="highway.motorway_link" priority="9" speed="22.22" allow="private emergency authority army vip passenger hov taxi bus coach delivery truck trailer motorcycle evehicle custom1 custom2" oneway="1"/>
    <type id="highway.path" priority="1" speed="2.78" allow="pedestrian bicycle" oneway="0" width="2.00"/>
    <type id="highway.pedestrian" priority="1" speed="2.78" allow="pedestrian" oneway="1" width="2.00"/>
    <type id="highway.primary" priority="12" speed="27.78" disallow="pedestrian tram rail_urban rail rail_electric rail_fast ship" oneway="0"/>
    <type id="highway.primary_link" priority="7" speed="22.22" disallow="pedestrian tram rail_urban rail rail_electric rail_fast ship" oneway="0"/>
    <type id="highway.raceway" priority="15" speed="83.33" allow="vip" oneway="0"/>
    <type id="highway.residential" priority="3" speed="13.89" disallow="pedestrian tram rail_urban rail rail_electric rail_fast ship" oneway="0"/>
    <type id="highway.secondary" priority="11" speed="27.78" disallow="pedestrian tram rail_urban rail rail_electric rail_fast ship" oneway="0"/>
    <type id="highway.secondary_link" priority="6" speed="22.22" disallow="pedestrian tram rail_urban rail rail_electric rail_fast ship" oneway="0"/>
    <type id="highway.service" priority="1" speed="5.56" allow="pedestrian delivery bicycle" oneway="0"/>
    <type id="highway.stairs" priority="1" speed="1.39" allow="pedestrian" oneway="1" width="2.00"/>
    <type id="highway.step" priority="1" speed="1.39" allow="pedestrian" oneway="1" width="2.00"/>
    <type id="highway.steps" priority="1" speed="1.39" allow="pedestrian" oneway="1" width="2.00"/>
    <type id="highway.tertiary" priority="10" speed="22.22" disallow="pedestrian tram rail_urban rail rail_electric rail_fast ship" oneway="0"/>
    <type id="highway.tertiary_link" priority="5" speed="22.22" disallow="pedestrian tram rail_urban rail rail_electric rail_fast ship" oneway="0"/>
    <type id="highway.track" priority="1" speed="5.56" allow="pedestrian motorcycle moped bicycle" oneway="0"/>
    <type id="highway.trunk" priority="13" speed="27.78" disallow="pedestrian bicycle tram rail_urban rail rail_electric rail_fast ship" oneway="0"/>
    <type id="highway.trunk_link" priority="8" speed="22.22" disallow="pedestrian bicycle tram rail_urban rail rail_electric rail_fast ship" oneway="0"/>
    <type id="highway.unclassified" priority="4" speed="13.89" disallow="pedestrian tram rail_urban rail rail_electric rail_fast ship" oneway="0"/>
    <type id="highway.unsurfaced" priority="1" speed="8.33" disallow="tram rail_urban rail rail_electric rail_fast ship" oneway="0"/>
    <type id="railway.highspeed" priority="21" speed="69.44" allow="rail_fast" oneway="1"/>
    <type id="railway.light_rail" priority="19" speed="27.78" allow="rail_urban" oneway="1"/>
    <type id="railway.preserved" priority="16" speed="27.78" allow="rail" oneway="1"/>
    <type id="railway.rail" priority="20" speed="44.44" allow="rail" oneway="1"/>
    <type id="railway.subway" priority="18" speed="27.78" allow="rail_urban" oneway="1"/>
    <type id="railway.tram" priority="17" speed="13.89" allow="tram" oneway="1"/>

    <edge id=":11_0" function="internal">
        <lane id=":11_0_0" index="0" disallow="pedestrian tram rail_urban rail rail_electric rail_fast ship" speed="36.11" length="2.97" width="3.50" shape="299.26,-456.88 300.10,-454.03"/>
    </edge>
    <edge id=":13_0" function="internal">
        <lane id=":13_0_0" index="0" disallow="pedestrian tram rail_urban rail rail_electric rail_fast ship" speed="36.11" length="3.01" width="3.50" shape="258.56,-463.48 261.46,-464.27"/>
    </edge>
    <edge id=":16_0" function="internal">
        <lane id=":16_0_0" index="0" disallow="pedestrian tram rail_urban rail rail_electric rail_fast ship" speed="36.11" length="3.00" width="3.50" shape="329.80,-477.87 326.90,-477.11"/>
    </edge>
    <edge id=":19_0" function="internal">
        <lane id=":19_0_0" index="0" disallow="pedestrian tram rail_urban rail rail_electric rail_fast ship" speed="36.11" length="2.97" width="3.47" shape="296.74,-453.05 295.90,-455.90"/>
    </edge>
    <edge id=":21_0" function="internal">
        <lane id=":21_0_0" index="0" disallow="pedestrian tram rail_urban rail rail_electric rail_fast ship" speed="36.11" length="3.00" width="3.50" shape="280.41,-485.34 282.40,-483.09"/>
    </edge>
    <edge id=":25_0" function="internal">
        <lane id=":25_0_0" index="0" disallow="pedestrian tram rail_urban rail rail_electric rail_fast ship" speed="8.97" length="16.47" width="3.50" shape="293.32,-463.41 292.03,-465.87 291.37,-466.23 290.53,-466.47 289.58,-466.62 288.56,-466.68 287.51,-466.68 285.31,-466.50 281.96,-465.96 278.61,-465.22"/>
    </edge>
    <edge id=":25_1" function="internal">
        <lane id=":25_1_0" index="0" disallow="pedestrian tram rail_urban rail rail_electric rail_fast ship" speed="29.02" length="16.19" width="3.43" shape="293.32,-463.41 290.53,-468.28 288.53,-470.90 283.71,-476.36"/>
    </edge>
    <edge id=":25_2" function="internal">
        <lane id=":25_2_0" index="0" disallow="pedestrian tram rail_urban rail rail_electric rail_fast ship" speed="9.02" length="19.72" width="3.50" shape="293.32,-463.41 291.80,-466.86 291.93,-468.29 292.64,-469.54 293.68,-470.55 294.88,-471.37 296.15,-472.07 298.82,-473.21 302.96,-474.54 304.38,-474.92"/>
    </edge>
    <edge id=":25_3" function="internal">
        <lane id=":25_3_0" index="0" disallow="pedestrian tram rail_urban rail rail_electric rail_fast ship" speed="36.11" length="0.10" width="3.35" shape="305.26,-471.53 305.16,-471.51"/>
    </edge>
    <edge id=":25_4" function="internal">
        <lane id=":25_4_0" index="0" disallow="pedestrian tram rail_urban rail rail_electric rail_fast ship" speed="36.11" length="27.39" width="3.50" shape="305.26,-471.53 291.95,-468.34 278.61,-465.22"/>
    </edge>
    <edge id=":25_5" function="internal">
        <lane id=":25_5_0" index="0" disallow="pedestrian tram rail_urban rail rail_electric rail_fast ship" speed="12.83" length="24.26" width="3.43" shape="305.26,-471.53 300.20,-470.41 296.36,-469.87 293.78,-469.77 292.49,-469.84 291.22,-470.03 289.97,-470.36 288.81,-470.91 283.71,-476.36"/>
    </edge>
    <edge id=":25_6" function="internal">
        <lane id=":25_6_0" index="0" disallow="pedestrian tram rail_urban rail rail_electric rail_fast ship" speed="11.81" length="20.43" width="3.50" shape="286.35,-478.65 290.82,-473.73 291.58,-473.47 292.48,-473.30 293.47,-473.23 294.50,-473.23 296.67,-473.39 299.97,-473.91 304.38,-474.92"/>
    </edge>
    <edge id=":25_7" function="internal">
        <lane id=":25_7_0" index="0" disallow="pedestrian tram rail_urban rail rail_electric rail_fast ship" speed="7.12" length="14.74" width="3.35" shape="286.35,-478.65 291.23,-473.13 293.40,-470.28 295.35,-467.03"/>
    </edge>
    <edge id=":25_8" function="internal">
        <lane id=":25_8_0" index="0" disallow="pedestrian tram rail_urban rail rail_electric rail_fast ship" speed="8.84" length="23.87" width="3.50" shape="286.35,-478.65 291.39,-471.99 290.60,-469.47 289.10,-468.29 287.73,-467.62 286.37,-467.12 283.74,-466.38 281.12,-465.78 278.61,-465.22"/>
    </edge>
    <edge id=":25_9" function="internal">
        <lane id=":25_9_0" index="0" disallow="pedestrian tram rail_urban rail rail_electric rail_fast ship" speed="7.75" length="17.99" width="3.43" shape="277.76,-468.61 279.94,-468.96 282.10,-469.17 284.25,-469.38 285.33,-469.52 286.39,-469.72 287.43,-470.04 288.17,-470.76 283.71,-476.36"/>
    </edge>
    <edge id=":25_10" function="internal">
        <lane id=":25_10_0" index="0" disallow="pedestrian tram rail_urban rail rail_electric rail_fast ship" speed="36.11" length="27.36" width="3.50" shape="277.76,-468.61 291.11,-471.74 304.38,-474.92"/>
    </edge>
    <edge id=":25_11" function="internal">
        <lane id=":25_11_0" index="0" disallow="pedestrian tram rail_urban rail rail_electric rail_fast ship" speed="12.54" length="18.80" width="3.35" shape="277.76,-468.61 281.69,-469.47 285.64,-470.03 288.29,-470.14 289.62,-470.07 290.93,-469.90 292.22,-469.57 293.44,-469.05 294.51,-468.27 295.35,-467.03"/>
    </edge>
    <edge id=":3_0" function="internal">
        <lane id=":3_0_0" index="0" disallow="pedestrian tram rail_urban rail rail_electric rail_fast ship" speed="36.11" length="3.00" width="3.50" shape="326.03,-480.50 328.93,-481.26"/>
    </edge>
    <edge id=":7_0" function="internal">
        <lane id=":7_0_0" index="0" disallow="pedestrian tram rail_urban rail rail_electric rail_fast ship" speed="36.11" length="3.00" width="3.50" shape="262.39,-460.89 259.49,-460.11"/>
    </edge>
    <edge id=":9_0" function="internal">
        <lane id=":9_0_0" index="0" disallow="pedestrian tram rail_urban rail rail_electric rail_fast ship" speed="36.11" length="3.00" width="3.50" shape="279.78,-480.77 277.79,-483.01"/>
    </edge>

    <edge id="11182" from="25" to="7" priority="3" type="highway.residential" spreadType="center" length="16.79" shape="292.01,-468.13 260.94,-460.50">
        <lane id="11182_0" index="0" disallow="pedestrian tram rail_urban rail rail_electric rail_fast ship" speed="36.11" length="16.79" width="3.50" customShape="1" shape="278.61,-465.22 276.17,-464.60 262.39,-460.89"/>
    </edge>
    <edge id="11183" from="13" to="25" priority="3" type="highway.residential" spreadType="center" length="16.91" shape="260.01,-463.88 291.17,-471.53">
        <lane id="11183_0" index="0" disallow="pedestrian tram rail_urban rail rail_electric rail_fast ship" speed="36.11" length="16.91" width="3.50" customShape="1" shape="261.46,-464.27 275.30,-468.00 277.80,-468.62"/>
    </edge>
    <edge id="11280" from="11" to="12" priority="3" type="highway.residential" spreadType="center" length="46.42">
        <lane id="11280_0" index="0" disallow="pedestrian tram rail_urban rail rail_electric rail_fast ship" speed="36.11" length="46.42" width="3.50" customShape="1" shape="300.10,-454.03 301.08,-450.59 303.59,-442.40 306.07,-435.79 307.62,-432.06 314.01,-416.15 316.50,-410.65"/>
    </edge>
    <edge id="11281" from="20" to="19" priority="3" type="highway.residential" spreadType="center" length="47.01">
        <lane id="11281_0" index="0" disallow="pedestrian tram rail_urban rail rail_electric rail_fast ship" speed="36.11" length="47.01" width="3.50" customShape="1" shape="313.35,-409.12 310.81,-414.73 304.37,-430.77 302.80,-434.53 300.28,-441.27 297.73,-449.58 296.74,-453.05"/>
    </edge>
    <edge id="11284" from="19" to="25" priority="3" type="highway.residential" spreadType="center" length="7.94" shape="296.33,-454.48 289.84,-469.29">
        <lane id="11284_0" index="0" disallow="pedestrian tram rail_urban rail rail_electric rail_fast ship" speed="36.11" length="7.94" width="3.47" customShape="1" shape="295.90,-455.90 294.80,-459.48 293.32,-463.41"/>
    </edge>
    <edge id="11286" from="21" to="25" priority="3" type="highway.residential" spreadType="center" length="5.94" shape="281.41,-484.21 292.93,-470.81">
        <lane id="11286_0" index="0" disallow="pedestrian tram rail_urban rail rail_electric rail_fast ship" speed="36.11" length="5.94" width="3.50" customShape="1" shape="282.40,-483.09 285.83,-479.23 286.35,-478.65"/>
    </edge>
    <edge id="11289" from="22" to="21" priority="3" type="highway.residential" spreadType="center" length="43.17">
        <lane id="11289_0" index="0" disallow="pedestrian tram rail_urban rail rail_electric rail_fast ship" speed="36.11" length="43.17" width="3.50" customShape="1" shape="251.42,-517.33 251.77,-516.96 263.52,-504.31 280.41,-485.34"/>
    </edge>
    <edge id="11290" from="9" to="10" priority="3" type="highway.residential" spreadType="center" length="43.07">
        <lane id="11290_0" index="0" disallow="pedestrian tram rail_urban rail rail_electric rail_fast ship" speed="36.11" length="43.07" width="3.50" customShape="1" shape="277.79,-483.01 260.94,-501.95 249.22,-514.56 248.88,-514.93"/>
    </edge>
    <edge id="11397" from="16" to="25" priority="3" type="highway.residential" spreadType="center" length="22.37" shape="328.36,-477.49 291.86,-468.10">
        <lane id="11397_0" index="0" disallow="pedestrian tram rail_urban rail rail_electric rail_fast ship" speed="36.11" length="22.37" width="3.50" customShape="1" shape="326.90,-477.11 316.80,-474.51 305.24,-471.53"/>
    </edge>
    <edge id="11398" from="25" to="3" priority="3" type="highway.residential" spreadType="center" length="22.36" shape="290.98,-471.48 327.48,-480.87">
        <lane id="11398_0" index="0" disallow="pedestrian tram rail_urban rail rail_electric rail_fast ship" speed="36.11" length="22.36" width="3.50" customShape="1" shape="304.38,-474.92 315.92,-477.90 326.03,-480.50"/>
    </edge>
    <edge id="12259" from="25" to="9" priority="3" type="highway.residential" spreadType="center" length="5.91" shape="290.32,-468.56 278.79,-481.89">
        <lane id="12259_0" index="0" disallow="pedestrian tram rail_urban rail rail_electric rail_fast ship" speed="36.11" length="5.91" width="3.43" customShape="1" shape="283.71,-476.36 283.22,-476.91 279.78,-480.77"/>
    </edge>
    <edge id="12324" from="25" to="11" priority="3" type="highway.residential" spreadType="center" length="11.06" shape="292.95,-470.64 299.69,-455.46">
        <lane id="12324_0" index="0" disallow="pedestrian tram rail_urban rail rail_electric rail_fast ship" speed="36.11" length="11.06" width="3.35" customShape="1" shape="295.35,-467.03 295.39,-467.12 295.48,-466.96 296.49,-464.89 298.07,-460.71 299.26,-456.88"/>
    </edge>
    <edge id="12367" from="17" to="13" priority="3" type="highway.residential" spreadType="center" length="26.17">
        <lane id="12367_0" index="0" disallow="pedestrian tram rail_urban rail rail_electric rail_fast ship" speed="36.11" length="26.17" width="3.50" customShape="1" shape="233.31,-456.60 246.66,-460.24 258.56,-463.48"/>
    </edge>
    <edge id="12561" from="18" to="16" priority="3" type="highway.residential" spreadType="center" length="26.34">
        <lane id="12561_0" index="0" disallow="pedestrian tram rail_urban rail rail_electric rail_fast ship" speed="36.11" length="26.34" width="3.50" customShape="1" shape="354.75,-486.26 345.74,-482.84 337.62,-480.12 329.80,-477.87"/>
    </edge>
    <edge id="12696" from="7" to="14" priority="3" type="highway.residential" spreadType="center" length="26.19">
        <lane id="12696_0" index="0" disallow="pedestrian tram rail_urban rail rail_electric rail_fast ship" speed="36.11" length="26.19" width="3.50" customShape="1" shape="259.49,-460.11 247.58,-456.86 234.22,-453.22"/>
    </edge>
    <edge id="12814" from="3" to="15" priority="3" type="highway.residential" spreadType="center" length="25.89">
        <lane id="12814_0" index="0" disallow="pedestrian tram rail_urban rail rail_electric rail_fast ship" speed="36.11" length="25.89" width="3.50" customShape="1" shape="328.93,-481.26 336.59,-483.47 344.57,-486.13 353.46,-489.51"/>
    </edge>

    <junction id="10" type="dead_end" x="248.88" y="-514.93" incLanes="11290_0" intLanes="" shape="247.61,-513.72 250.15,-516.13" rightOfWay="edgePriority"/>
    <junction id="11" type="priority" x="299.69" y="-455.46" incLanes="12324_0" intLanes=":11_0_0" shape="298.42,-453.55 301.79,-454.51 300.85,-457.38 297.66,-456.39" rightOfWay="edgePriority">
        <request index="0" response="0" foes="0" cont="0"/>
    </junction>
    <junction id="12" type="dead_end" x="316.50" y="-410.65" incLanes="11280_0" intLanes="" shape="318.09,-411.37 314.90,-409.93" rightOfWay="edgePriority"/>
    <junction id="13" type="priority" x="260.01" y="-463.88" incLanes="12367_0" intLanes=":13_0_0" shape="261.91,-462.58 261.00,-465.96 258.10,-465.17 259.02,-461.80" rightOfWay="edgePriority">
        <request index="0" response="0" foes="0" cont="0"/>
    </junction>
    <junction id="14" type="dead_end" x="234.22" y="-453.22" incLanes="12696_0" intLanes="" shape="234.68,-451.53 233.76,-454.91" rightOfWay="edgePriority"/>
    <junction id="15" type="dead_end" x="353.46" y="-489.51" incLanes="12814_0" intLanes="" shape="352.83,-491.15 354.08,-487.88" rightOfWay="edgePriority"/>
    <junction id="16" type="priority" x="328.36" y="-477.49" incLanes="12561_0" intLanes=":16_0_0" shape="330.25,-476.18 329.36,-479.57 326.47,-478.81 327.34,-475.42" rightOfWay="edgePriority">
        <request index="0" response="0" foes="0" cont="0"/>
    </junction>
    <junction id="17" type="dead_end" x="233.31" y="-456.60" incLanes="" intLanes="" shape="233.78,-454.91 232.85,-458.29" rightOfWay="edgePriority"/>
    <junction id="18" type="dead_end" x="354.75" y="-486.26" incLanes="" intLanes="" shape="354.13,-487.89 355.37,-484.62" rightOfWay="edgePriority"/>
    <junction id="19" type="priority" x="296.33" y="-454.48" incLanes="11281_0" intLanes=":19_0_0" shape="295.06,-452.57 298.43,-453.53 297.56,-456.42 294.24,-455.39" rightOfWay="edgePriority">
        <request index="0" response="0" foes="0" cont="0"/>
    </junction>
    <junction id="20" type="dead_end" x="313.35" y="-409.12" incLanes="" intLanes="" shape="314.94,-409.85 311.75,-408.40" rightOfWay="edgePriority"/>
    <junction id="21" type="priority" x="281.41" y="-484.21" incLanes="11289_0" intLanes=":21_0_0" shape="281.09,-481.93 283.71,-484.26 281.72,-486.50 279.10,-484.17" rightOfWay="edgePriority">
        <request index="0" response="0" foes="0" cont="0"/>
    </junction>
    <junction id="22" type="dead_end" x="251.42" y="-517.33" incLanes="" intLanes="" shape="250.15,-516.13 252.69,-518.54" rightOfWay="edgePriority"/>
    <junction id="25" type="priority" x="291.50" y="-469.81" incLanes="11284_0 11397_0 11286_0 11183_0" intLanes=":25_0_0 :25_1_0 :25_2_0 :25_3_0 :25_4_0 :25_5_0 :25_6_0 :25_7_0 :25_8_0 :25_9_0 :25_10_0 :25_11_0" shape="291.75,-462.66 294.89,-464.15 305.70,-469.80 303.95,-476.62 300.45,-475.92 297.27,-475.72 294.41,-476.00 291.85,-476.78 289.61,-478.04 287.67,-479.80 282.41,-475.23 283.03,-473.36 282.47,-472.51 281.34,-471.71 279.63,-470.98 277.34,-470.31 279.04,-463.52 282.54,-464.29 285.48,-464.69 287.88,-464.74 289.72,-464.42 291.00,-463.75">
        <request index="0" response="000000010000" foes="000100010000" cont="0"/>
        <request index="1" response="111000110000" foes="111100110000" cont="0"/>
        <request index="2" response="110111110000" foes="110111110000" cont="0"/>
        <request index="3" response="000000000000" foes="100010000000" cont="0"/>
        <request index="4" response="000000000000" foes="100110000111" cont="0"/>
        <request index="5" response="011000000000" foes="111110000110" cont="0"/>
        <request index="6" response="010000000000" foes="010000000100" cont="0"/>
        <request index="7" response="110000111000" foes="110000111100" cont="0"/>
        <request index="8" response="110000110011" foes="110000110111" cont="0"/>
        <request index="9" response="000000000000" foes="000000100010" cont="0"/>
        <request index="10" response="000000000000" foes="000111100110" cont="0"/>
        <request index="11" response="000000111000" foes="000110111110" cont="0"/>
    </junction>
    <junction id="3" type="priority" x="327.48" y="-480.87" incLanes="11398_0" intLanes=":3_0_0" shape="329.37,-479.57 328.49,-482.96 325.59,-482.19 326.46,-478.81" rightOfWay="edgePriority">
        <request index="0" response="0" foes="0" cont="0"/>
    </junction>
    <junction id="7" type="priority" x="260.94" y="-460.50" incLanes="11182_0" intLanes=":7_0_0" shape="262.84,-459.20 261.93,-462.58 259.03,-461.80 259.95,-458.42" rightOfWay="edgePriority">
        <request index="0" response="0" foes="0" cont="0"/>
    </junction>
    <junction id="9" type="priority" x="278.79" y="-481.89" incLanes="12259_0" intLanes=":9_0_0" shape="278.50,-479.63 281.07,-481.91 279.10,-484.18 276.48,-481.85" rightOfWay="edgePriority">
        <request index="0" response="0" foes="0" cont="0"/>
    </junction>

    <connection from="11182" to="12696" fromLane="0" toLane="0" contPos="-4.00" via=":7_0_0" dir="s" state="M"/>
    <connection from="11183" to="12259" fromLane="0" toLane="0" contPos="-4.00" shape="277.80,-468.62 279.94,-468.96 282.10,-469.17 284.25,-469.38 285.33,-469.52 286.39,-469.72 287.43,-470.04 288.17,-470.76 287.81,-471.73" via=":25_9_0" dir="r" state="M"/>
    <connection from="11183" to="11398" fromLane="0" toLane="0" contPos="-4.00" shape="277.80,-468.62 291.11,-471.74 304.38,-474.92" via=":25_10_0" dir="s" state="M"/>
    <connection from="11183" to="12324" fromLane="0" toLane="0" contPos="-4.00" shape="277.80,-468.62 281.69,-469.47 285.64,-470.03 288.29,-470.14 289.62,-470.07 290.93,-469.90 292.22,-469.57 293.44,-469.05 294.51,-468.27 295.35,-467.03" via=":25_11_0" dir="l" state="m"/>
    <connection from="11281" to="11284" fromLane="0" toLane="0" contPos="-4.00" via=":19_0_0" dir="s" state="M"/>
    <connection from="11284" to="11182" fromLane="0" toLane="0" contPos="-4.00" shape="292.35,-465.42 292.03,-465.87 291.37,-466.23 290.53,-466.47 289.58,-466.62 288.56,-466.68 287.51,-466.68 285.31,-466.50 281.96,-465.96 278.61,-465.22" via=":25_0_0" dir="r" state="m"/>
    <connection from="11284" to="12259" fromLane="0" toLane="0" contPos="-4.00" shape="292.35,-465.42 290.53,-468.28 288.53,-470.90 287.81,-471.73" via=":25_1_0" dir="s" state="m"/>
    <connection from="11284" to="11398" fromLane="0" toLane="0" contPos="-4.00" shape="292.35,-465.42 291.80,-466.86 291.93,-468.29 292.64,-469.54 293.68,-470.55 294.88,-471.37 296.15,-472.07 298.82,-473.21 302.96,-474.54 304.38,-474.92" via=":25_2_0" dir="l" state="m"/>
    <connection from="11286" to="11398" fromLane="0" toLane="0" contPos="-4.00" shape="290.43,-474.01 290.82,-473.73 291.58,-473.47 292.48,-473.30 293.47,-473.23 294.50,-473.23 296.67,-473.39 299.97,-473.91 304.38,-474.92" via=":25_6_0" dir="r" state="m"/>
    <connection from="11286" to="12324" fromLane="0" toLane="0" contPos="-4.00" shape="290.43,-474.01 291.23,-473.13 293.40,-470.28 295.35,-467.03" via=":25_7_0" dir="s" state="m"/>
    <connection from="11286" to="11182" fromLane="0" toLane="0" contPos="-4.00" shape="290.43,-474.01 291.39,-471.99 290.60,-469.47 289.10,-468.29 287.73,-467.62 286.37,-467.12 283.74,-466.38 281.12,-465.78 278.61,-465.22" via=":25_8_0" dir="l" state="m"/>
    <connection from="11289" to="11286" fromLane="0" toLane="0" contPos="-4.00" via=":21_0_0" dir="s" state="M"/>
    <connection from="11397" to="12324" fromLane="0" toLane="0" contPos="-4.00" shape="305.24,-471.53 304.11,-471.23 300.75,-470.21 298.63,-469.39 297.65,-468.94 296.72,-468.42 295.93,-467.86 295.41,-467.28 295.41,-467.09 295.35,-467.03" via=":25_3_0" dir="r" state="M"/>
    <connection from="11397" to="11182" fromLane="0" toLane="0" contPos="-4.00" shape="305.24,-471.53 291.95,-468.34 278.61,-465.22" via=":25_4_0" dir="s" state="M"/>
    <connection from="11397" to="12259" fromLane="0" toLane="0" contPos="-4.00" shape="305.24,-471.53 300.20,-470.41 296.36,-469.87 293.78,-469.77 292.49,-469.84 291.22,-470.03 289.97,-470.36 288.81,-470.91 287.81,-471.73" via=":25_5_0" dir="l" state="m"/>
    <connection from="11398" to="12814" fromLane="0" toLane="0" contPos="-4.00" via=":3_0_0" dir="s" state="M"/>
    <connection from="12259" to="11290" fromLane="0" toLane="0" contPos="-4.00" via=":9_0_0" dir="s" state="M"/>
    <connection from="12324" to="11280" fromLane="0" toLane="0" contPos="-4.00" via=":11_0_0" dir="s" state="M"/>
    <connection from="12367" to="11183" fromLane="0" toLane="0" contPos="-4.00" via=":13_0_0" dir="s" state="M"/>
    <connection from="12561" to="11397" fromLane="0" toLane="0" contPos="-4.00" via=":16_0_0" dir="s" state="M"/>

    <connection from=":11_0" to="11280" fromLane="0" toLane="0" dir="s" state="M"/>
    <connection from=":13_0" to="11183" fromLane="0" toLane="0" dir="s" state="M"/>
    <connection from=":16_0" to="11397" fromLane="0" toLane="0" dir="s" state="M"/>
    <connection from=":19_0" to="11284" fromLane="0" toLane="0" dir="s" state="M"/>
    <connection from=":21_0" to="11286" fromLane="0" toLane="0" dir="s" state="M"/>
    <connection from=":25_0" to="11182" fromLane="0" toLane="0" dir="r" state="M"/>
    <connection from=":25_1" to="12259" fromLane="0" toLane="0" dir="s" state="M"/>
    <connection from=":25_2" to="11398" fromLane="0" toLane="0" dir="l" state="M"/>
    <connection from=":25_3" to="12324" fromLane="0" toLane="0" dir="r" state="M"/>
    <connection from=":25_4" to="11182" fromLane="0" toLane="0" dir="s" state="M"/>
    <connection from=":25_5" to="12259" fromLane="0" toLane="0" dir="l" state="M"/>
    <connection from=":25_6" to="11398" fromLane="0" toLane="0" dir="r" state="M"/>
    <connection from=":25_7" to="12324" fromLane="0" toLane="0" dir="s" state="M"/>
    <connection from=":25_8" to="11182" fromLane="0" toLane="0" dir="l" state="M"/>
    <connection from=":25_9" to="12259" fromLane="0" toLane="0" dir="r" state="M"/>
    <connection from=":25_10" to="11398" fromLane="0" toLane="0" dir="s" state="M"/>
    <connection from=":25_11" to="12324" fromLane="0" toLane="0" dir="l" state="M"/>
    <connection from=":3_0" to="12814" fromLane="0" toLane="0" dir="s" state="M"/>
    <connection from=":7_0" to="12696" fromLane="0" toLane="0" dir="s" state="M"/>
    <connection from=":9_0" to="11290" fromLane="0" toLane="0" dir="s" state="M"/>

</net>