<routes>
	<vehicle depart="0.1" departLane="0" departPos="16.927981503829805" departSpeed="0.67203511" id="327" type="bus">
		<route edges="11183 12259"/>
	</vehicle>
	<vehicle depart="0.1" departLane="0" departPos="42.2576988918788" departSpeed="0.29991473" id="30" type="passenger">
		<route edges="11289 11286"/>
	</vehicle>
	<vehicle depart="0.1" departLane="0" departPos="42.23400648697198" departSpeed="0.74814792" id="31" type="passenger">
		<route edges="11281 11284"/>
	</vehicle>
	<vehicle depart="0.1" departLane="0" departPos="35.77437608976748" departSpeed="0.055232559" id="38" type="passenger">
		<route edges="11289 11286"/>
	</vehicle>
	<vehicle depart="0.1" departLane="0" departPos="18.48078044306957" departSpeed="1.7045865" id="324" type="passenger">
		<route edges=":25_11 12324 11280"/>
	</vehicle>
	<vehicle depart="0.1" departLane="0" departPos="13.426513202093899" departSpeed="3.3266503" id="325" type="passenger">
		<route edges="11397 11182"/>
	</vehicle>
	<vehicle depart="0.1" departLane="0" departPos="26.219117276132863" departSpeed="1.3765641" id="328" type="passenger">
		<route edges="12367 11183 12259"/>
	</vehicle>
	<vehicle depart="0.1" departLane="0" departPos="27.381820710570867" departSpeed="2.5801454" id="329" type="passenger">
		<route edges="12561 11397 12324"/>
	</vehicle>
	<vehicle depart="0.1" departLane="0" departPos="12.246925919470055" departSpeed="0.87233474" id="330" type="passenger">
		<route edges="12367 11183"/>
	</vehicle>
	<vehicle depart="0.1" departLane="0" departPos="17.068730103241066" departSpeed="3.5982754" id="331" type="passenger">
		<route edges="12561 11397 12324"/>
	</vehicle>
</routes>
