<routes>
	<vehicle depart="0.1" departLane="0" departPos="51.29500105158509" departSpeed="0.0" id="37" type="passenger">
		<route edges="7758 7855"/>
	</vehicle>
	<vehicle depart="0.1" departLane="0" departPos="43.79399847537711" departSpeed="0.0" id="39" type="passenger">
		<route edges="7758 7855"/>
	</vehicle>
	<vehicle depart="0.1" departLane="0" departPos="45.56730441920189" departSpeed="0.00051814822" id="310" type="passenger">
		<route edges="7687 7604"/>
	</vehicle>
	<vehicle depart="0.1" departLane="0" departPos="36.2929536155615" departSpeed="5.6795855e-05" id="312" type="passenger">
		<route edges="7758 7855"/>
	</vehicle>
	<vehicle depart="0.1" departLane="0" departPos="28.7915225691733" departSpeed="0.00047179301" id="315" type="passenger">
		<route edges="7758 7855"/>
	</vehicle>
	<vehicle depart="0.1" departLane="0" departPos="23.488580983636176" departSpeed="10.169957" id="333" type="passenger">
		<route edges=":51_3 7757 7605"/>
	</vehicle>
	<vehicle depart="0.1" departLane="0" departPos="11.941184138970128" departSpeed="7.4594732" id="335" type="passenger">
		<route edges=":51_0 7757 7605"/>
	</vehicle>
	<vehicle depart="0.1" departLane="0" departPos="21.288003638902783" departSpeed="0.0027055218" id="317" type="motorcycle">
		<route edges="7758 7855"/>
	</vehicle>
	<vehicle depart="0.1" departLane="0" departPos="61.29600709088472" departSpeed="0.0" id="38" type="truck">
		<route edges="7758 7855"/>
	</vehicle>
</routes>
