<!-- generated on Tue Feb  9 22:12:02 2021 by Eclipse SUMO netconvert Version 1.8.0
<configuration xmlns:xsi="http://www.w3.org/2001/XMLSchema-instance" xsi:noNamespaceSchemaLocation="http://sumo.dlr.de/xsd/netconvertConfiguration.xsd">

    <input>
        <node-files value="./converted_scenarios/scenario-factory/ITA_Empoli-10_1_I-1-1/ITA_Empoli-10_1_I-1-1.nod.xml"/>
        <edge-files value="./converted_scenarios/scenario-factory/ITA_Empoli-10_1_I-1-1/ITA_Empoli-10_1_I-1-1.edg.xml"/>
        <connection-files value="./converted_scenarios/scenario-factory/ITA_Empoli-10_1_I-1-1/ITA_Empoli-10_1_I-1-1.con.xml"/>
        <tllogic-files value="./converted_scenarios/scenario-factory/ITA_Empoli-10_1_I-1-1/ITA_Empoli-10_1_I-1-1.tll.xml"/>
        <type-files value="/home/zen/commonroad-interactive-benchmarks/install/commonroad-map-tool/crmapconverter/sumo_map/templates/DEU.typ.xml"/>
    </input>

    <output>
        <output-file value="./converted_scenarios/scenario-factory/ITA_Empoli-10_1_I-1-1/ITA_Empoli-10_1_I-1-1.net.xml"/>
    </output>

    <processing>
        <geometry.remove.keep-edges.explicit value="true"/>
        <geometry.avoid-overlap value="true"/>
        <offset.disable-normalization value="true"/>
    </processing>

    <junctions>
        <no-turnarounds value="true"/>
        <junctions.internal-link-detail value="20"/>
    </junctions>

    <report>
        <aggregate-warnings value="5"/>
    </report>

    <random_number>
        <seed value="1234"/>
    </random_number>

</configuration>
--><net xmlns:xsi="http://www.w3.org/2001/XMLSchema-instance" version="1.6" junctionCornerDetail="5" junctionLinkDetail="20" limitTurnSpeed="5.50" xsi:noNamespaceSchemaLocation="http://sumo.dlr.de/xsd/net_file.xsd">

    <location netOffset="0.00,0.00" convBoundary="-248.69,122.83,-78.93,319.44" origBoundary="-248.69,122.83,-78.93,319.44" projParameter="!"/>

    <type id="highway.bridleway" priority="1" speed="2.78" allow="pedestrian" oneway="1" width="2.00"/>
    <type id="highway.bus_guideway" priority="1" speed="27.78" allow="bus" oneway="1"/>
    <type id="highway.cycleway" priority="1" speed="8.33" allow="bicycle" oneway="0" width="1.00"/>
    <type id="highway.footway" priority="1" speed="2.78" allow="pedestrian" oneway="1" width="2.00"/>
    <type id="highway.ford" priority="1" speed="2.78" allow="army" oneway="0"/>
    <type id="highway.living_street" priority="2" speed="2.78" disallow="tram rail_urban rail rail_electric rail_fast ship" oneway="0"/>
    <type id="highway.motorway" priority="14" speed="39.44" allow="private emergency authority army vip passenger hov taxi bus coach delivery truck trailer motorcycle evehicle custom1 custom2" oneway="1"/>
    <type id="highway.motorway_link" priority="9" speed="22.22" allow="private emergency authority army vip passenger hov taxi bus coach delivery truck trailer motorcycle evehicle custom1 custom2" oneway="1"/>
    <type id="highway.path" priority="1" speed="2.78" allow="pedestrian bicycle" oneway="0" width="2.00"/>
    <type id="highway.pedestrian" priority="1" speed="2.78" allow="pedestrian" oneway="1" width="2.00"/>
    <type id="highway.primary" priority="12" speed="27.78" disallow="pedestrian tram rail_urban rail rail_electric rail_fast ship" oneway="0"/>
    <type id="highway.primary_link" priority="7" speed="22.22" disallow="pedestrian tram rail_urban rail rail_electric rail_fast ship" oneway="0"/>
    <type id="highway.raceway" priority="15" speed="83.33" allow="vip" oneway="0"/>
    <type id="highway.residential" priority="3" speed="13.89" disallow="pedestrian tram rail_urban rail rail_electric rail_fast ship" oneway="0"/>
    <type id="highway.secondary" priority="11" speed="27.78" disallow="pedestrian tram rail_urban rail rail_electric rail_fast ship" oneway="0"/>
    <type id="highway.secondary_link" priority="6" speed="22.22" disallow="pedestrian tram rail_urban rail rail_electric rail_fast ship" oneway="0"/>
    <type id="highway.service" priority="1" speed="5.56" allow="pedestrian delivery bicycle" oneway="0"/>
    <type id="highway.stairs" priority="1" speed="1.39" allow="pedestrian" oneway="1" width="2.00"/>
    <type id="highway.step" priority="1" speed="1.39" allow="pedestrian" oneway="1" width="2.00"/>
    <type id="highway.steps" priority="1" speed="1.39" allow="pedestrian" oneway="1" width="2.00"/>
    <type id="highway.tertiary" priority="10" speed="22.22" disallow="pedestrian tram rail_urban rail rail_electric rail_fast ship" oneway="0"/>
    <type id="highway.tertiary_link" priority="5" speed="22.22" disallow="pedestrian tram rail_urban rail rail_electric rail_fast ship" oneway="0"/>
    <type id="highway.track" priority="1" speed="5.56" allow="pedestrian motorcycle moped bicycle" oneway="0"/>
    <type id="highway.trunk" priority="13" speed="27.78" disallow="pedestrian bicycle tram rail_urban rail rail_electric rail_fast ship" oneway="0"/>
    <type id="highway.trunk_link" priority="8" speed="22.22" disallow="pedestrian bicycle tram rail_urban rail rail_electric rail_fast ship" oneway="0"/>
    <type id="highway.unclassified" priority="4" speed="13.89" disallow="pedestrian tram rail_urban rail rail_electric rail_fast ship" oneway="0"/>
    <type id="highway.unsurfaced" priority="1" speed="8.33" disallow="tram rail_urban rail rail_electric rail_fast ship" oneway="0"/>
    <type id="railway.highspeed" priority="21" speed="69.44" allow="rail_fast" oneway="1"/>
    <type id="railway.light_rail" priority="19" speed="27.78" allow="rail_urban" oneway="1"/>
    <type id="railway.preserved" priority="16" speed="27.78" allow="rail" oneway="1"/>
    <type id="railway.rail" priority="20" speed="44.44" allow="rail" oneway="1"/>
    <type id="railway.subway" priority="18" speed="27.78" allow="rail_urban" oneway="1"/>
    <type id="railway.tram" priority="17" speed="13.89" allow="tram" oneway="1"/>

    <edge id=":45_0" function="internal">
        <lane id=":45_0_0" index="0" disallow="pedestrian tram rail_urban rail rail_electric rail_fast ship" speed="36.11" length="38.57" width="3.50" shape="-123.96,242.86 -132.89,251.63 -151.27,270.10"/>
    </edge>
    <edge id=":45_1" function="internal">
        <lane id=":45_1_0" index="0" disallow="pedestrian tram rail_urban rail rail_electric rail_fast ship" speed="12.61" length="34.55" width="3.50" shape="-123.96,242.86 -125.81,244.54 -127.81,246.08 -129.96,247.44 -132.28,248.57 -134.76,249.39 -137.34,249.86 -139.97,249.92 -142.58,249.59 -145.08,248.90 -147.46,247.92 -149.69,246.72 -151.79,245.32 -154.67,243.03"/>
    </edge>
    <edge id=":45_2" function="internal">
        <lane id=":45_2_0" index="0" disallow="pedestrian tram rail_urban rail rail_electric rail_fast ship" speed="11.64" length="29.26" width="3.50" shape="-152.36,240.40 -149.84,242.41 -148.03,243.61 -146.13,244.64 -144.12,245.48 -142.03,246.06 -139.88,246.34 -137.71,246.30 -135.58,245.92 -133.52,245.24 -131.56,244.30 -129.73,243.14 -128.01,241.81 -126.41,240.35"/>
    </edge>
    <edge id=":45_3" function="internal">
        <lane id=":45_3_0" index="0" disallow="pedestrian tram rail_urban rail rail_electric rail_fast ship" speed="11.98" length="34.42" width="3.50" shape="-152.36,240.40 -149.64,243.05 -147.96,245.06 -146.49,247.24 -145.31,249.61 -144.83,250.91 -144.47,252.23 -144.22,253.59 -144.11,254.97 -144.12,256.35 -144.27,257.72 -144.53,259.06 -144.91,260.40 -145.92,262.84 -147.23,265.13 -148.75,267.25 -151.27,270.10"/>
    </edge>
    <edge id=":45_4" function="internal">
        <lane id=":45_4_0" index="0" disallow="pedestrian tram rail_urban rail rail_electric rail_fast ship" speed="10.97" length="28.66" width="3.50" shape="-153.79,267.67 -151.60,265.19 -150.31,263.40 -149.21,261.49 -148.37,259.45 -148.07,258.38 -147.86,257.30 -147.74,256.20 -147.73,255.10 -147.82,254.00 -148.02,252.91 -148.31,251.85 -148.68,250.81 -149.67,248.84 -150.91,247.01 -152.32,245.32 -154.67,243.03"/>
    </edge>
    <edge id=":45_5" function="internal">
        <lane id=":45_5_0" index="0" disallow="pedestrian tram rail_urban rail rail_electric rail_fast ship" speed="36.11" length="38.68" width="3.50" shape="-153.79,267.67 -135.35,249.15 -126.41,240.35"/>
    </edge>
    <edge id=":46_0" function="internal">
        <lane id=":46_0_0" index="0" disallow="pedestrian tram rail_urban rail rail_electric rail_fast ship" speed="10.96" length="28.63" width="3.50" shape="-161.03,163.03 -163.66,161.03 -165.54,159.88 -167.53,158.93 -169.63,158.24 -170.71,158.02 -171.80,157.89 -172.90,157.87 -174.00,157.94 -175.09,158.12 -176.16,158.39 -177.20,158.77 -178.20,159.22 -180.09,160.36 -181.82,161.73 -183.40,163.26 -185.51,165.77"/>
    </edge>
    <edge id=":46_1" function="internal">
        <lane id=":46_1_0" index="0" disallow="pedestrian tram rail_urban rail rail_electric rail_fast ship" speed="36.11" length="38.40" width="3.50" shape="-161.03,163.03 -174.41,151.53 -189.92,137.74"/>
    </edge>
    <edge id=":46_2" function="internal">
        <lane id=":46_2_0" index="0" disallow="pedestrian tram rail_urban rail rail_electric rail_fast ship" speed="36.11" length="38.25" width="3.50" shape="-187.57,135.15 -172.11,148.89 -158.79,160.34"/>
    </edge>
    <edge id=":46_3" function="internal">
        <lane id=":46_3_0" index="0" disallow="pedestrian tram rail_urban rail rail_electric rail_fast ship" speed="12.65" length="34.44" width="3.50" shape="-187.57,135.15 -185.79,136.89 -184.14,138.78 -182.65,140.85 -181.40,143.10 -180.44,145.52 -179.84,148.08 -179.63,150.69 -179.81,153.30 -180.33,155.83 -181.15,158.25 -182.20,160.55 -183.43,162.75 -185.51,165.77"/>
    </edge>
    <edge id=":46_4" function="internal">
        <lane id=":46_4_0" index="0" disallow="pedestrian tram rail_urban rail rail_electric rail_fast ship" speed="11.68" length="29.21" width="3.50" shape="-188.30,163.67 -186.48,161.01 -185.41,159.12 -184.51,157.15 -183.81,155.10 -183.36,152.99 -183.20,150.83 -183.36,148.67 -183.85,146.56 -184.64,144.54 -185.69,142.65 -186.95,140.88 -188.38,139.25 -189.92,137.74"/>
    </edge>
    <edge id=":46_5" function="internal">
        <lane id=":46_5_0" index="0" disallow="pedestrian tram rail_urban rail rail_electric rail_fast ship" speed="11.97" length="34.41" width="3.50" shape="-188.30,163.67 -185.86,160.76 -183.99,158.94 -181.92,157.31 -179.65,155.94 -178.39,155.37 -177.10,154.91 -175.77,154.56 -174.41,154.34 -173.03,154.25 -171.65,154.28 -170.30,154.44 -168.93,154.72 -166.42,155.55 -164.04,156.68 -161.81,158.04 -158.79,160.34"/>
    </edge>
    <edge id=":47_0" function="internal">
        <lane id=":47_0_0" index="0" disallow="pedestrian tram rail_urban rail rail_electric rail_fast ship" speed="36.11" length="4.45" width="3.49" shape="-229.08,249.54 -232.39,246.56"/>
    </edge>
    <edge id=":47_1" function="internal">
        <lane id=":47_1_0" index="0" disallow="pedestrian tram rail_urban rail rail_electric rail_fast ship" speed="12.43" length="33.49" width="3.50" shape="-229.06,249.55 -231.68,246.88 -233.28,244.88 -234.66,242.71 -235.79,240.36 -236.57,237.88 -236.83,236.54 -236.98,235.22 -237.02,233.89 -236.95,232.54 -236.53,229.98 -235.78,227.49 -234.75,225.14 -233.50,222.92 -231.37,219.87"/>
    </edge>
    <edge id=":47_2" function="internal">
        <lane id=":47_2_0" index="0" disallow="pedestrian tram rail_urban rail rail_electric rail_fast ship" speed="11.45" length="28.23" width="3.50" shape="-228.59,222.00 -230.46,224.67 -231.52,226.57 -232.40,228.55 -233.04,230.63 -233.39,232.77 -233.44,233.86 -233.41,234.94 -233.29,236.02 -233.08,237.09 -232.43,239.16 -231.50,241.12 -230.33,242.95 -228.98,244.65 -226.70,246.97"/>
    </edge>
    <edge id=":47_3" function="internal">
        <lane id=":47_3_0" index="0" disallow="pedestrian tram rail_urban rail rail_electric rail_fast ship" speed="10.71" length="22.82" width="3.49" shape="-228.61,222.02 -229.85,223.58 -231.05,225.04 -232.22,226.40 -233.36,227.66 -234.46,228.82 -235.53,229.87 -236.56,230.82 -237.56,231.67 -238.53,232.42 -239.46,233.06 -240.35,233.61 -241.21,234.05 -242.04,234.38 -242.83,234.62 -243.59,234.76 -244.31,234.79 -245.00,234.72 -245.66,234.54 -246.28,234.27"/>
    </edge>
    <edge id=":47_4" function="internal">
        <lane id=":47_4_0" index="0" disallow="pedestrian tram rail_urban rail rail_electric rail_fast ship" speed="9.53" length="20.36" width="3.50" shape="-246.36,229.88 -244.34,231.50 -243.67,231.46 -242.91,231.21 -242.11,230.80 -241.27,230.27 -240.45,229.67 -238.80,228.26 -236.44,225.90 -234.21,223.38 -231.37,219.87"/>
    </edge>
    <edge id=":47_5" function="internal">
        <lane id=":47_5_0" index="0" disallow="pedestrian tram rail_urban rail rail_electric rail_fast ship" speed="36.11" length="26.06" width="3.50" shape="-246.36,229.88 -239.50,235.48 -226.70,246.97"/>
    </edge>
    <edge id=":49_0" function="internal">
        <lane id=":49_0_0" index="0" disallow="pedestrian tram rail_urban rail rail_electric rail_fast ship" speed="10.99" length="28.83" width="3.50" shape="-194.62,207.95 -197.35,205.78 -199.25,204.55 -201.24,203.53 -203.34,202.77 -204.36,202.52 -205.41,202.35 -206.47,202.28 -207.52,202.30 -208.56,202.43 -209.60,202.65 -210.61,202.97 -211.57,203.36 -213.50,204.43 -215.28,205.77 -216.92,207.30 -219.21,209.94"/>
    </edge>
    <edge id=":49_1" function="internal">
        <lane id=":49_1_0" index="0" disallow="pedestrian tram rail_urban rail rail_electric rail_fast ship" speed="12.60" length="34.56" width="3.50" shape="-194.62,207.95 -196.45,206.25 -198.95,203.50 -200.46,201.45 -201.76,199.24 -202.80,196.87 -203.52,194.35 -203.85,191.74 -203.77,189.11 -203.31,186.54 -202.52,184.08 -201.46,181.75 -200.19,179.57 -198.77,177.53"/>
    </edge>
    <edge id=":49_2" function="internal">
        <lane id=":49_2_0" index="0" disallow="pedestrian tram rail_urban rail rail_electric rail_fast ship" speed="11.63" length="29.27" width="3.50" shape="-195.96,179.63 -197.20,181.40 -198.29,183.28 -199.19,185.25 -199.85,187.32 -200.22,189.45 -200.27,191.62 -199.99,193.77 -199.38,195.85 -198.50,197.83 -197.39,199.69 -196.10,201.43 -193.91,203.84 -192.32,205.32"/>
    </edge>
    <edge id=":49_3" function="internal">
        <lane id=":49_3_0" index="0" disallow="pedestrian tram rail_urban rail rail_electric rail_fast ship" speed="36.11" length="38.20" width="3.50" shape="-195.96,179.63 -199.70,184.56 -219.21,209.94"/>
    </edge>
    <edge id=":49_4" function="internal">
        <lane id=":49_4_0" index="0" disallow="pedestrian tram rail_urban rail rail_electric rail_fast ship" speed="36.11" length="38.13" width="3.50" shape="-221.97,207.79 -202.49,182.44 -198.77,177.53"/>
    </edge>
    <edge id=":49_5" function="internal">
        <lane id=":49_5_0" index="0" disallow="pedestrian tram rail_urban rail rail_electric rail_fast ship" speed="12.00" length="34.63" width="3.50" shape="-221.97,207.79 -219.34,204.75 -217.39,202.94 -215.26,201.34 -212.94,200.04 -211.71,199.53 -210.44,199.13 -209.14,198.85 -207.82,198.69 -206.49,198.66 -205.16,198.75 -203.85,198.96 -202.55,199.27 -200.05,200.18 -197.68,201.39 -195.45,202.83 -192.32,205.32"/>
    </edge>
    <edge id=":50_0" function="internal">
        <lane id=":50_0_0" index="0" disallow="pedestrian tram rail_urban rail rail_electric rail_fast ship" speed="36.11" length="38.83" width="3.50" shape="-163.65,308.63 -175.52,298.24 -192.66,282.82"/>
    </edge>
    <edge id=":50_1" function="internal">
        <lane id=":50_1_0" index="0" disallow="pedestrian tram rail_urban rail rail_electric rail_fast ship" speed="12.02" length="34.79" width="3.50" shape="-163.65,308.63 -166.56,305.83 -168.29,303.79 -169.79,301.57 -170.98,299.18 -171.44,297.92 -171.78,296.63 -172.01,295.31 -172.11,293.98 -172.08,292.64 -171.93,291.31 -171.66,290.00 -171.28,288.72 -170.25,286.26 -168.91,283.94 -167.34,281.78 -164.68,278.78"/>
    </edge>
    <edge id=":50_2" function="internal">
        <lane id=":50_2_0" index="0" disallow="pedestrian tram rail_urban rail rail_electric rail_fast ship" speed="11.00" length="28.98" width="3.50" shape="-162.18,281.22 -164.50,283.84 -165.83,285.68 -166.96,287.62 -167.83,289.68 -168.12,290.69 -168.34,291.74 -168.46,292.80 -168.49,293.86 -168.41,294.91 -168.23,295.96 -167.95,296.99 -167.60,297.97 -166.61,299.97 -165.36,301.82 -163.90,303.55 -161.36,305.99"/>
    </edge>
    <edge id=":50_3" function="internal">
        <lane id=":50_3_0" index="0" disallow="pedestrian tram rail_urban rail rail_electric rail_fast ship" speed="12.43" length="34.64" width="3.50" shape="-162.18,281.22 -164.90,283.75 -166.90,285.30 -169.04,286.67 -171.34,287.83 -173.80,288.69 -176.35,289.19 -177.70,289.30 -179.03,289.29 -180.38,289.16 -182.92,288.63 -185.37,287.74 -187.66,286.57 -189.79,285.17 -192.66,282.82"/>
    </edge>
    <edge id=":50_4" function="internal">
        <lane id=":50_4_0" index="0" disallow="pedestrian tram rail_urban rail rail_electric rail_fast ship" speed="11.45" length="29.23" width="3.50" shape="-190.33,280.21 -187.82,282.27 -186.00,283.45 -184.08,284.44 -182.04,285.18 -179.92,285.61 -178.84,285.70 -177.76,285.70 -176.68,285.62 -174.56,285.19 -172.52,284.47 -170.59,283.49 -168.77,282.32 -167.06,280.99 -164.68,278.78"/>
    </edge>
    <edge id=":50_5" function="internal">
        <lane id=":50_5_0" index="0" disallow="pedestrian tram rail_urban rail rail_electric rail_fast ship" speed="36.11" length="38.78" width="3.50" shape="-190.33,280.21 -173.20,295.62 -161.36,305.99"/>
    </edge>
    <edge id=":51_0" function="internal">
        <lane id=":51_0_0" index="0" disallow="pedestrian tram rail_urban rail rail_electric rail_fast ship" speed="12.99" length="35.17" width="3.50" shape="-82.79,203.60 -84.73,205.24 -86.78,206.69 -88.95,207.94 -91.25,208.94 -93.66,209.64 -96.14,210.00 -98.65,210.01 -101.13,209.68 -103.56,209.04 -105.89,208.13 -108.13,207.01 -111.31,204.99 -114.30,202.66"/>
    </edge>
    <edge id=":51_1" function="internal">
        <lane id=":51_1_0" index="0" disallow="pedestrian tram rail_urban rail rail_electric rail_fast ship" speed="12.02" length="30.06" width="3.50" shape="-112.04,199.99 -109.39,202.06 -106.59,203.84 -104.67,204.82 -102.67,205.60 -100.63,206.15 -98.55,206.44 -96.47,206.45 -94.41,206.16 -92.40,205.59 -90.46,204.75 -88.61,203.69 -86.84,202.44 -85.16,201.02"/>
    </edge>
    <edge id=":51_2" function="internal">
        <lane id=":51_2_0" index="0" disallow="pedestrian tram rail_urban rail rail_electric rail_fast ship" speed="11.97" length="35.35" width="3.50" shape="-112.04,199.99 -109.04,202.80 -107.25,204.84 -105.69,207.06 -104.42,209.47 -103.93,210.73 -103.55,212.04 -103.29,213.37 -103.17,214.72 -103.18,216.08 -103.32,217.43 -103.59,218.77 -103.97,220.07 -105.04,222.57 -106.44,224.90 -108.07,227.07 -110.84,230.06"/>
    </edge>
    <edge id=":51_3" function="internal">
        <lane id=":51_3_0" index="0" disallow="pedestrian tram rail_urban rail rail_electric rail_fast ship" speed="10.96" length="29.43" width="3.50" shape="-113.30,227.58 -110.87,224.96 -109.49,223.12 -108.32,221.16 -107.43,219.08 -107.13,218.06 -106.92,217.00 -106.81,215.94 -106.80,214.87 -106.90,213.80 -107.11,212.75 -107.41,211.71 -107.79,210.71 -108.85,208.70 -110.17,206.84 -111.69,205.11 -114.30,202.66"/>
    </edge>

    <edge id="7604" from="49" to="46" priority="3" type="highway.residential" spreadType="center" length="17.38" shape="-205.35,197.20 -180.03,153.41">
        <lane id="7604_0" index="0" disallow="pedestrian tram rail_urban rail rail_electric rail_fast ship" speed="36.11" length="17.38" width="3.50" customShape="1" shape="-198.77,177.53 -193.54,170.60 -188.30,163.66"/>
    </edge>
    <edge id="7605" from="46" to="49" priority="3" type="highway.residential" spreadType="center" length="17.37" shape="-177.00,155.16 -202.32,198.95">
        <lane id="7605_0" index="0" disallow="pedestrian tram rail_urban rail rail_electric rail_fast ship" speed="36.11" length="17.37" width="3.50" customShape="1" shape="-185.51,165.77 -190.74,172.71 -195.97,179.64"/>
    </edge>
    <edge id="7607" from="47" to="49" priority="3" type="highway.residential" spreadType="center" length="15.33" shape="-233.45,232.84 -205.14,196.89">
        <lane id="7607_0" index="0" disallow="pedestrian tram rail_urban rail rail_electric rail_fast ship" speed="36.11" length="15.33" width="3.50" customShape="1" shape="-231.37,219.87 -226.66,213.81 -221.96,207.77"/>
    </edge>
    <edge id="7608" from="49" to="47" priority="3" type="highway.residential" spreadType="center" length="15.31" shape="-202.39,199.05 -230.70,235.00">
        <lane id="7608_0" index="0" disallow="pedestrian tram rail_urban rail rail_electric rail_fast ship" speed="36.11" length="15.31" width="3.50" customShape="1" shape="-219.21,209.94 -223.89,215.96 -228.61,222.02"/>
    </edge>
    <edge id="7637" from="25" to="47" priority="3" type="highway.residential" spreadType="center" length="2.94" shape="-248.69,228.09 -231.50,232.29">
        <lane id="7637_0" index="0" disallow="pedestrian tram rail_urban rail rail_electric rail_fast ship" speed="36.11" length="2.94" width="3.47" customShape="1" shape="-248.69,228.09 -246.36,229.88"/>
    </edge>
    <edge id="7639" from="50" to="47" priority="3" type="highway.residential" spreadType="center" length="49.34" shape="-173.65,290.91 -233.27,235.20">
        <lane id="7639_0" index="0" disallow="pedestrian tram rail_urban rail rail_electric rail_fast ship" speed="36.11" length="49.34" width="3.50" customShape="1" shape="-192.66,282.82 -210.87,266.18 -229.08,249.54"/>
    </edge>
    <edge id="7640" from="47" to="50" priority="3" type="highway.residential" spreadType="center" length="49.31" shape="-230.88,232.64 -171.26,288.35">
        <lane id="7640_0" index="0" disallow="pedestrian tram rail_urban rail rail_electric rail_fast ship" speed="36.11" length="49.31" width="3.50" customShape="1" shape="-226.70,246.97 -208.51,263.59 -190.30,280.24"/>
    </edge>
    <edge id="7642" from="42" to="50" priority="3" type="highway.residential" spreadType="center" length="16.53" shape="-151.19,319.44 -173.91,290.62">
        <lane id="7642_0" index="0" disallow="pedestrian tram rail_urban rail rail_electric rail_fast ship" speed="36.11" length="16.53" width="3.50" customShape="1" shape="-151.19,319.44 -157.43,314.03 -163.68,308.61"/>
    </edge>
    <edge id="7643" from="50" to="37" priority="3" type="highway.residential" spreadType="center" length="16.52" shape="-171.16,288.46 -148.88,316.81">
        <lane id="7643_0" index="0" disallow="pedestrian tram rail_urban rail rail_electric rail_fast ship" speed="36.11" length="16.52" width="3.50" customShape="1" shape="-161.36,305.99 -155.14,311.38 -148.88,316.81"/>
    </edge>
    <edge id="7686" from="49" to="45" priority="3" type="highway.residential" spreadType="center" length="53.17" shape="-202.68,196.68 -142.59,249.42">
        <lane id="7686_0" index="0" disallow="pedestrian tram rail_urban rail rail_electric rail_fast ship" speed="36.11" length="53.17" width="3.50" customShape="1" shape="-192.32,205.32 -172.35,222.85 -152.36,240.40"/>
    </edge>
    <edge id="7687" from="45" to="49" priority="3" type="highway.residential" spreadType="center" length="53.17" shape="-144.90,252.05 -204.99,199.31">
        <lane id="7687_0" index="0" disallow="pedestrian tram rail_urban rail rail_electric rail_fast ship" speed="36.11" length="53.17" width="3.50" customShape="1" shape="-154.67,243.03 -174.66,225.48 -194.63,207.95"/>
    </edge>
    <edge id="7754" from="46" to="24" priority="3" type="highway.residential" spreadType="center" length="18.34" shape="-179.84,155.43 -203.52,125.43">
        <lane id="7754_0" index="0" disallow="pedestrian tram rail_urban rail rail_electric rail_fast ship" speed="36.11" length="18.34" width="3.50" customShape="1" shape="-189.92,137.74 -196.73,131.58 -203.52,125.43"/>
    </edge>
    <edge id="7755" from="32" to="46" priority="3" type="highway.residential" spreadType="center" length="18.37" shape="-201.18,122.83 -177.10,153.26">
        <lane id="7755_0" index="0" disallow="pedestrian tram rail_urban rail rail_electric rail_fast ship" speed="36.11" length="18.37" width="3.50" customShape="1" shape="-201.18,122.83 -194.38,128.99 -187.56,135.16"/>
    </edge>
    <edge id="7757" from="51" to="46" priority="3" type="highway.residential" spreadType="center" length="61.30" shape="-104.10,212.24 -179.57,155.69">
        <lane id="7757_0" index="0" disallow="pedestrian tram rail_urban rail rail_electric rail_fast ship" speed="36.11" length="61.30" width="3.50" customShape="1" shape="-114.30,202.66 -137.65,182.86 -161.05,163.01"/>
    </edge>
    <edge id="7758" from="46" to="51" priority="3" type="highway.residential" spreadType="center" length="61.30" shape="-177.47,152.89 -102.00,209.44">
        <lane id="7758_0" index="0" disallow="pedestrian tram rail_urban rail rail_electric rail_fast ship" speed="36.11" length="61.30" width="3.50" customShape="1" shape="-158.79,160.34 -135.39,180.19 -112.04,199.99"/>
    </edge>
    <edge id="7855" from="51" to="40" priority="3" type="highway.residential" spreadType="center" length="5.23" shape="-103.99,209.33 -81.29,197.50">
        <lane id="7855_0" index="0" disallow="pedestrian tram rail_urban rail rail_electric rail_fast ship" speed="36.11" length="5.23" width="3.50" customShape="1" shape="-85.16,201.02 -85.08,200.95 -84.98,200.86 -81.29,197.50"/>
    </edge>
    <edge id="7856" from="41" to="51" priority="3" type="highway.residential" spreadType="center" length="5.25" shape="-78.93,200.09 -102.36,212.42">
        <lane id="7856_0" index="0" disallow="pedestrian tram rail_urban rail rail_electric rail_fast ship" speed="36.11" length="5.25" width="3.50" customShape="1" shape="-78.93,200.09 -82.63,203.45 -82.72,203.54 -82.81,203.62"/>
    </edge>
    <edge id="7858" from="45" to="51" priority="3" type="highway.residential" spreadType="center" length="18.33" shape="-144.97,249.49 -104.26,209.53">
        <lane id="7858_0" index="0" disallow="pedestrian tram rail_urban rail rail_electric rail_fast ship" speed="36.11" length="18.33" width="3.50" customShape="1" shape="-126.41,240.35 -119.84,233.95 -113.28,227.56"/>
    </edge>
    <edge id="7859" from="51" to="45" priority="3" type="highway.residential" spreadType="center" length="18.34" shape="-101.81,212.03 -142.52,251.99">
        <lane id="7859_0" index="0" disallow="pedestrian tram rail_urban rail rail_electric rail_fast ship" speed="36.11" length="18.34" width="3.50" customShape="1" shape="-110.84,230.06 -117.40,236.46 -123.97,242.87"/>
    </edge>
    <edge id="7861" from="50" to="45" priority="3" type="highway.residential" spreadType="center" length="15.59" shape="-173.92,288.62 -145.15,249.70">
        <lane id="7861_0" index="0" disallow="pedestrian tram rail_urban rail rail_electric rail_fast ship" speed="36.11" length="15.59" width="3.50" customShape="1" shape="-164.68,278.78 -159.24,273.22 -153.77,267.65"/>
    </edge>
    <edge id="7862" from="45" to="50" priority="3" type="highway.residential" spreadType="center" length="15.59" shape="-142.34,251.78 -171.11,290.70">
        <lane id="7862_0" index="0" disallow="pedestrian tram rail_urban rail rail_electric rail_fast ship" speed="36.11" length="15.59" width="3.50" customShape="1" shape="-151.27,270.10 -156.74,275.68 -162.18,281.23"/>
    </edge>
    <edge id="8331" from="47" to="48" priority="3" type="highway.residential" spreadType="center" length="0.25" shape="-232.06,235.66 -246.65,234.07">
        <lane id="8331_0" index="0" disallow="pedestrian tram rail_urban rail rail_electric rail_fast ship" speed="36.11" length="0.25" width="3.49" customShape="1" shape="-246.28,234.27 -246.50,234.15"/>
    </edge>
    <edge id="8337" from="47" to="48" priority="3" type="highway.residential" spreadType="center" length="18.79">
        <lane id="8337_0" index="0" disallow="pedestrian tram rail_urban rail rail_electric rail_fast ship" speed="36.11" length="18.79" width="3.49" customShape="1" shape="-232.39,246.56 -241.74,238.17 -246.52,234.18"/>
    </edge>

    <junction id="24" type="dead_end" x="-203.52" y="125.43" incLanes="7754_0" intLanes="" shape="-204.70,126.73 -202.35,124.13" rightOfWay="edgePriority"/>
    <junction id="25" type="dead_end" x="-248.69" y="228.09" incLanes="" intLanes="" shape="-249.74,229.47 -247.64,226.72" rightOfWay="edgePriority"/>
    <junction id="32" type="dead_end" x="-201.18" y="122.83" incLanes="" intLanes="" shape="-202.35,124.13 -200.00,121.54" rightOfWay="edgePriority"/>
    <junction id="37" type="dead_end" x="-148.88" y="316.81" incLanes="7643_0" intLanes="" shape="-147.73,315.49 -150.03,318.14" rightOfWay="edgePriority"/>
    <junction id="40" type="dead_end" x="-81.29" y="197.50" incLanes="7855_0" intLanes="" shape="-82.46,196.20 -80.11,198.79" rightOfWay="edgePriority"/>
    <junction id="41" type="dead_end" x="-78.93" y="200.09" incLanes="" intLanes="" shape="-80.11,198.79 -77.75,201.38" rightOfWay="edgePriority"/>
    <junction id="42" type="dead_end" x="-151.19" y="319.44" incLanes="" intLanes="" shape="-150.04,318.12 -152.34,320.76" rightOfWay="edgePriority"/>
    <junction id="45" type="priority" x="-143.75" y="250.74" incLanes="7859_0 7686_0 7861_0" intLanes=":45_0_0 :45_1_0 :45_2_0 :45_3_0 :45_4_0 :45_5_0" shape="-122.74,244.11 -127.63,239.10 -131.38,242.12 -135.21,243.94 -139.11,244.54 -143.07,243.93 -147.11,242.11 -151.21,239.08 -155.83,244.34 -152.45,247.90 -150.37,251.51 -149.59,255.16 -150.10,258.87 -151.91,262.63 -155.02,266.43 -150.02,271.33">
        <request index="0" response="000000" foes="001000" cont="0"/>
        <request index="1" response="110000" foes="111000" cont="0"/>
        <request index="2" response="100000" foes="100000" cont="0"/>
        <request index="3" response="100011" foes="100011" cont="0"/>
        <request index="4" response="000000" foes="000010" cont="0"/>
        <request index="5" response="000000" foes="001110" cont="0"/>
    </junction>