<routes>
	<vehicle depart="0.1" departLane="0" departPos="32.40993570196566" departSpeed="0.0" id="39" type="passenger">
		<route edges="13563 13508"/>
	</vehicle>
	<vehicle depart="0.1" departLane="0" departPos="8.33806369281761" departSpeed="1.6473737" id="312" type="passenger">
		<route edges="13563 13460"/>
	</vehicle>
	<vehicle depart="0.1" departLane="0" departPos="6.072650640129033" departSpeed="13.106274" id="321" type="passenger">
		<route edges="13564 13567"/>
	</vehicle>
	<vehicle depart="0.1" departLane="0" departPos="30.498582145192813" departSpeed="13.074094" id="322" type="passenger">
		<route edges=":37_5 13564 13567"/>
	</vehicle>
	<vehicle depart="0.1" departLane="0" departPos="42.63106254291484" departSpeed="3.285047" id="330" type="passenger">
		<route edges="13461 13508"/>
	</vehicle>
	<vehicle depart="0.1" departLane="0" departPos="17.373034872078115" departSpeed="1.0826488" id="335" type="passenger">
		<route edges=":37_2 13564 13567"/>
	</vehicle>
	<vehicle depart="0.1" departLane="0" departPos="25.19121325277248" departSpeed="0.072165464" id="336" type="passenger">
		<route edges="13563 13460"/>
	</vehicle>
	<vehicle depart="0.1" departLane="0" departPos="17.60579589566249" departSpeed="0.4735201" id="337" type="passenger">
		<route edges="13563 13460"/>
	</vehicle>
	<vehicle depart="0.1" departLane="0" departPos="37.71292383807046" departSpeed="1.7382427" id="340" type="passenger">
		<route edges="13461 13564"/>
	</vehicle>
	<vehicle depart="0.1" departLane="0" departPos="23.566193262162134" departSpeed="1.6247929" id="345" type="passenger">
		<route edges="13461 13564"/>
	</vehicle>
</routes>
