<routes>
	<vehicle depart="0.1" departLane="0" departPos="21.421664959848357" departSpeed="1.9175118" id="31" type="passenger">
		<route edges=":90_3 34704"/>
	</vehicle>
	<vehicle depart="0.1" departLane="0" departPos="67.5136160756687" departSpeed="0.80197235" id="345" type="passenger">
		<route edges="34810 34704"/>
	</vehicle>
	<vehicle depart="0.1" departLane="0" departPos="8.121697055698757" departSpeed="15.919216" id="383" type="passenger">
		<route edges="34704 34707"/>
	</vehicle>
	<vehicle depart="0.1" departLane="0" departPos="33.28247154071789" departSpeed="13.836154" id="390" type="passenger">
		<route edges=":90_1 34704 34981"/>
	</vehicle>
	<vehicle depart="0.1" departLane="0" departPos="24.548944238935153" departSpeed="10.788019" id="394" type="passenger">
		<route edges=":90_0 34807 34804"/>
	</vehicle>
	<vehicle depart="0.1" departLane="0" departPos="28.86642420310106" departSpeed="8.5311559" id="3101" type="passenger">
		<route edges="34701 34704"/>
	</vehicle>
	<vehicle depart="0.1" departLane="0" departPos="17.613744387250094" departSpeed="6.3540185" id="3106" type="passenger">
		<route edges="34701 34807"/>
	</vehicle>
	<vehicle depart="0.1" departLane="0" departPos="12.836733446971843" departSpeed="1.2842334" id="326" type="motorcycle">
		<route edges=":90_8 34811"/>
	</vehicle>
</routes>
