<!-- generated on Wed Feb 10 12:26:12 2021 by Eclipse SUMO netconvert Version 1.8.0
<configuration xmlns:xsi="http://www.w3.org/2001/XMLSchema-instance" xsi:noNamespaceSchemaLocation="http://sumo.dlr.de/xsd/netconvertConfiguration.xsd">

    <input>
        <node-files value="./converted_scenarios/SUMO/DEU_Lohmar-57_1_I-1-1/DEU_Lohmar-57_1_I-1-1.nod.xml"/>
        <edge-files value="./converted_scenarios/SUMO/DEU_Lohmar-57_1_I-1-1/DEU_Lohmar-57_1_I-1-1.edg.xml"/>
        <connection-files value="./converted_scenarios/SUMO/DEU_Lohmar-57_1_I-1-1/DEU_Lohmar-57_1_I-1-1.con.xml"/>
        <tllogic-files value="./converted_scenarios/SUMO/DEU_Lohmar-57_1_I-1-1/DEU_Lohmar-57_1_I-1-1.tll.xml"/>
        <type-files value="/home/zen/commonroad-interactive-benchmarks/install/commonroad-map-tool/crmapconverter/sumo_map/templates/DEU.typ.xml"/>
    </input>

    <output>
        <output-file value="./converted_scenarios/SUMO/DEU_Lohmar-57_1_I-1-1/DEU_Lohmar-57_1_I-1-1.net.xml"/>
    </output>

    <processing>
        <geometry.remove.keep-edges.explicit value="true"/>
        <geometry.avoid-overlap value="true"/>
        <offset.disable-normalization value="true"/>
    </processing>

    <junctions>
        <no-turnarounds value="true"/>
        <junctions.internal-link-detail value="20"/>
    </junctions>

    <report>
        <aggregate-warnings value="5"/>
    </report>

    <random_number>
        <seed value="1234"/>
    </random_number>

</configuration>
--><net xmlns:xsi="http://www.w3.org/2001/XMLSchema-instance" version="1.6" junctionCornerDetail="5" junctionLinkDetail="20" limitTurnSpeed="5.50" xsi:noNamespaceSchemaLocation="http://sumo.dlr.de/xsd/net_file.xsd">

    <location netOffset="0.00,0.00" convBoundary="130.01,-43.25,559.42,113.89" origBoundary="130.01,-43.25,559.42,113.89" projParameter="!"/>

    <type id="highway.bridleway" priority="1" speed="2.78" allow="pedestrian" oneway="1" width="2.00"/>
    <type id="highway.bus_guideway" priority="1" speed="27.78" allow="bus" oneway="1"/>
    <type id="highway.cycleway" priority="1" speed="8.33" allow="bicycle" oneway="0" width="1.00"/>
    <type id="highway.footway" priority="1" speed="2.78" allow="pedestrian" oneway="1" width="2.00"/>
    <type id="highway.ford" priority="1" speed="2.78" allow="army" oneway="0"/>
    <type id="highway.living_street" priority="2" speed="2.78" disallow="tram rail_urban rail rail_electric rail_fast ship" oneway="0"/>
    <type id="highway.motorway" priority="14" speed="39.44" allow="private emergency authority army vip passenger hov taxi bus coach delivery truck trailer motorcycle evehicle custom1 custom2" oneway="1"/>
    <type id="highway.motorway_link" priority="9" speed="22.22" allow="private emergency authority army vip passenger hov taxi bus coach delivery truck trailer motorcycle evehicle custom1 custom2" oneway="1"/>
    <type id="highway.path" priority="1" speed="2.78" allow="pedestrian bicycle" oneway="0" width="2.00"/>
    <type id="highway.pedestrian" priority="1" speed="2.78" allow="pedestrian" oneway="1" width="2.00"/>
    <type id="highway.primary" priority="12" speed="27.78" disallow="pedestrian tram rail_urban rail rail_electric rail_fast ship" oneway="0"/>
    <type id="highway.primary_link" priority="7" speed="22.22" disallow="pedestrian tram rail_urban rail rail_electric rail_fast ship" oneway="0"/>
    <type id="highway.raceway" priority="15" speed="83.33" allow="vip" oneway="0"/>
    <type id="highway.residential" priority="3" speed="13.89" disallow="pedestrian tram rail_urban rail rail_electric rail_fast ship" oneway="0"/>
    <type id="highway.secondary" priority="11" speed="27.78" disallow="pedestrian tram rail_urban rail rail_electric rail_fast ship" oneway="0"/>
    <type id="highway.secondary_link" priority="6" speed="22.22" disallow="pedestrian tram rail_urban rail rail_electric rail_fast ship" oneway="0"/>
    <type id="highway.service" priority="1" speed="5.56" allow="pedestrian delivery bicycle" oneway="0"/>
    <type id="highway.stairs" priority="1" speed="1.39" allow="pedestrian" oneway="1" width="2.00"/>
    <type id="highway.step" priority="1" speed="1.39" allow="pedestrian" oneway="1" width="2.00"/>
    <type id="highway.steps" priority="1" speed="1.39" allow="pedestrian" oneway="1" width="2.00"/>
    <type id="highway.tertiary" priority="10" speed="22.22" disallow="pedestrian tram rail_urban rail rail_electric rail_fast ship" oneway="0"/>
    <type id="highway.tertiary_link" priority="5" speed="22.22" disallow="pedestrian tram rail_urban rail rail_electric rail_fast ship" oneway="0"/>
    <type id="highway.track" priority="1" speed="5.56" allow="pedestrian motorcycle moped bicycle" oneway="0"/>
    <type id="highway.trunk" priority="13" speed="27.78" disallow="pedestrian bicycle tram rail_urban rail rail_electric rail_fast ship" oneway="0"/>
    <type id="highway.trunk_link" priority="8" speed="22.22" disallow="pedestrian bicycle tram rail_urban rail rail_electric rail_fast ship" oneway="0"/>
    <type id="highway.unclassified" priority="4" speed="13.89" disallow="pedestrian tram rail_urban rail rail_electric rail_fast ship" oneway="0"/>
    <type id="highway.unsurfaced" priority="1" speed="8.33" disallow="tram rail_urban rail rail_electric rail_fast ship" oneway="0"/>
    <type id="railway.highspeed" priority="21" speed="69.44" allow="rail_fast" oneway="1"/>
    <type id="railway.light_rail" priority="19" speed="27.78" allow="rail_urban" oneway="1"/>
    <type id="railway.preserved" priority="16" speed="27.78" allow="rail" oneway="1"/>
    <type id="railway.rail" priority="20" speed="44.44" allow="rail" oneway="1"/>
    <type id="railway.subway" priority="18" speed="27.78" allow="rail_urban" oneway="1"/>
    <type id="railway.tram" priority="17" speed="13.89" allow="tram" oneway="1"/>

    <edge id=":21_0" function="internal">
        <lane id=":21_0_0" index="0" disallow="pedestrian tram rail_urban rail rail_electric rail_fast ship" speed="22.60" length="21.49" width="3.50" shape="208.73,4.93 207.70,3.88 205.47,1.93 202.66,-0.10 199.22,-2.12 195.14,-4.07 190.40,-5.90"/>
    </edge>
    <edge id=":21_1" function="internal">
        <lane id=":21_1_0" index="0" disallow="pedestrian tram rail_urban rail rail_electric rail_fast ship" speed="33.87" length="22.55" width="3.50" shape="212.84,-5.29 204.47,-4.84 198.18,-4.83 194.00,-5.14 191.43,-5.60 190.40,-5.90"/>
    </edge>
    <edge id=":21_2" function="internal">
        <lane id=":21_2_0" index="0" disallow="pedestrian tram rail_urban rail rail_electric rail_fast ship" speed="32.95" length="21.20" width="3.50" shape="191.52,-9.21 192.35,-8.97 194.67,-8.57 198.57,-8.31 204.56,-8.34 212.63,-8.78"/>
    </edge>
    <edge id=":21_3" function="internal">
        <lane id=":21_3_0" index="0" disallow="pedestrian tram rail_urban rail rail_electric rail_fast ship" speed="23.45" length="23.19" width="3.50" shape="191.52,-9.21 196.58,-7.26 200.95,-5.16 204.65,-2.97 207.71,-0.76 210.13,1.37 211.27,2.52"/>
    </edge>
    <edge id=":22_0" function="internal">
        <lane id=":22_0_0" index="0" disallow="pedestrian tram rail_urban rail rail_electric rail_fast ship" speed="36.11" length="17.18" width="3.50" shape="496.25,87.70 488.24,84.56 480.26,81.43"/>
    </edge>
    <edge id=":22_1" function="internal">
        <lane id=":22_1_0" index="0" disallow="pedestrian tram rail_urban rail rail_electric rail_fast ship" speed="8.74" length="16.02" width="3.50" shape="496.25,87.70 494.36,86.82 492.61,85.67 491.59,84.72 490.74,83.61 490.11,82.37 489.72,81.03 489.57,79.64 489.72,77.56 490.19,75.52 490.41,74.87"/>
    </edge>
    <edge id=":22_2" function="internal">
        <lane id=":22_2_0" index="0" disallow="pedestrian tram rail_urban rail rail_electric rail_fast ship" speed="7.27" length="10.74" width="3.50" shape="493.74,75.93 493.53,76.55 493.38,77.09 493.26,77.64 493.17,78.19 493.12,78.75 493.11,79.31 493.15,79.87 493.24,80.42 493.41,80.96 493.64,81.47 493.93,81.94 494.28,82.38 494.68,82.78 495.11,83.14 495.57,83.46 496.05,83.75 496.54,84.01 497.05,84.25 497.57,84.46"/>
    </edge>
    <edge id=":22_3" function="internal">
        <lane id=":22_3_0" index="0" disallow="pedestrian tram rail_urban rail rail_electric rail_fast ship" speed="8.46" length="16.75" width="3.50" shape="493.74,75.93 493.18,77.31 492.15,79.12 491.16,80.29 489.97,81.27 488.56,82.00 487.09,82.42 485.59,82.56 484.13,82.47 482.13,82.06 480.26,81.43"/>
    </edge>
    <edge id=":22_4" function="internal">
        <lane id=":22_4_0" index="0" disallow="pedestrian tram rail_urban rail rail_electric rail_fast ship" speed="6.96" length="10.94" width="3.50" shape="481.52,78.17 482.88,78.62 484.27,78.92 485.22,78.99 486.18,78.93 487.10,78.69 487.96,78.28 488.70,77.69 489.33,76.97 490.05,75.74 490.41,74.87"/>
    </edge>
    <edge id=":22_5" function="internal">
        <lane id=":22_5_0" index="0" disallow="pedestrian tram rail_urban rail rail_electric rail_fast ship" speed="36.11" length="17.24" width="3.50" shape="481.52,78.17 489.52,81.30 497.57,84.46"/>
    </edge>

    <edge id="106" from="21" to="14" priority="3" type="highway.residential" spreadType="center" length="70.00" shape="203.80,-2.05 130.01,-39.85">
        <lane id="106_0" index="0" disallow="pedestrian tram rail_urban rail rail_electric rail_fast ship" speed="36.11" length="70.00" width="3.50" customShape="1" shape="190.40,-5.90 174.65,-11.26 167.99,-13.86 162.40,-16.43 157.84,-18.89 153.92,-21.39 149.38,-24.74 137.33,-34.67 132.58,-38.21 130.01,-39.85"/>
    </edge>
    <edge id="107" from="20" to="21" priority="3" type="highway.residential" spreadType="center" length="70.00" shape="131.18,-43.25 205.40,-5.16">
        <lane id="107_0" index="0" disallow="pedestrian tram rail_urban rail rail_electric rail_fast ship" speed="36.11" length="70.00" width="3.50" customShape="1" shape="131.18,-43.25 134.57,-41.08 139.50,-37.41 151.53,-27.50 155.90,-24.28 159.61,-21.91 163.96,-19.57 169.35,-17.08 175.84,-14.55 191.53,-9.21"/>
    </edge>
    <edge id="109" from="22" to="21" priority="3" type="highway.residential" spreadType="center" length="292.67" shape="489.47,82.12 204.07,-1.94">
        <lane id="109_0" index="0" disallow="pedestrian tram rail_urban rail rail_electric rail_fast ship" speed="36.11" length="292.67" width="3.50" customShape="1" shape="480.26,81.43 474.57,79.17 463.70,75.06 452.71,71.36 442.64,68.32 426.02,63.95 416.25,61.49 409.88,60.22 404.46,59.47 399.50,59.12 394.09,59.11 388.67,59.45 382.26,60.22 365.90,62.95 357.84,64.08 351.72,64.60 343.97,64.78 337.23,64.60 331.01,64.07 324.35,63.10 316.87,61.60 308.51,59.50 294.46,55.41 282.41,51.93 266.70,48.12 260.76,46.42 255.89,44.68 251.57,42.77 249.19,41.32 241.34,35.28 233.08,28.29 222.99,19.24 215.25,11.96 208.71,4.90"/>
    </edge>
    <edge id="110" from="21" to="22" priority="3" type="highway.residential" spreadType="center" length="291.11" shape="205.06,-5.30 490.46,78.77">
        <lane id="110_0" index="0" disallow="pedestrian tram rail_urban rail rail_electric rail_fast ship" speed="36.11" length="291.11" width="3.50" customShape="1" shape="211.27,2.52 217.73,9.50 225.35,16.66 235.38,25.65 243.54,32.55 251.17,38.44 253.16,39.65 257.18,41.43 261.83,43.09 267.58,44.73 283.31,48.55 295.45,52.06 309.42,56.13 317.64,58.18 324.95,59.65 331.41,60.60 337.42,61.11 343.97,61.28 351.53,61.10 357.45,60.60 365.36,59.49 381.76,56.76 388.35,55.97 393.98,55.61 399.64,55.62 404.83,56.00 410.47,56.77 417.02,58.08 426.91,60.57 443.59,64.95 453.78,68.03 464.88,71.76 475.84,75.92 481.55,78.18"/>
    </edge>
    <edge id="112" from="16" to="22" priority="3" type="highway.residential" spreadType="center" length="67.72" shape="558.45,113.89 489.19,82.01">
        <lane id="112_0" index="0" disallow="pedestrian tram rail_urban rail rail_electric rail_fast ship" speed="36.11" length="67.72" width="3.50" customShape="1" shape="558.45,113.89 547.21,110.78 540.81,108.79 535.94,106.93 530.79,104.52 520.96,99.19 510.54,93.86 504.57,91.08 496.25,87.70"/>
    </edge>
    <edge id="113" from="22" to="5" priority="3" type="highway.residential" spreadType="center" length="67.34" shape="490.65,78.84 559.42,110.53">
        <lane id="113_0" index="0" disallow="pedestrian tram rail_urban rail rail_electric rail_fast ship" speed="36.11" length="67.34" width="3.50" customShape="1" shape="497.57,84.46 505.96,87.88 512.08,90.72 522.61,96.11 532.36,101.40 537.29,103.70 541.95,105.48 548.18,107.41 559.42,110.53"/>
    </edge>
    <edge id="237" from="19" to="22" priority="3" type="highway.residential" spreadType="center" length="35.72" shape="497.40,40.71 491.67,80.76">
        <lane id="237_0" index="0" disallow="pedestrian tram rail_urban rail rail_electric rail_fast ship" speed="36.11" length="35.72" width="3.50" customShape="1" shape="497.40,40.71 497.31,47.28 497.21,57.02 496.81,62.72 496.13,67.41 495.30,71.03 493.71,76.02"/>
    </edge>
    <edge id="238" from="22" to="7" priority="3" type="highway.residential" spreadType="center" length="34.62" shape="488.21,80.27 493.91,40.63">
        <lane id="238_0" index="0" disallow="pedestrian tram rail_urban rail rail_electric rail_fast ship" speed="36.11" length="34.62" width="3.50" customShape="1" shape="490.41,74.87 491.92,70.11 492.69,66.78 493.33,62.36 493.72,56.88 493.81,47.26 493.91,40.63"/>
    </edge>
    <edge id="85" from="17" to="21" priority="3" type="highway.residential" spreadType="center" length="70.06" shape="281.83,5.55 204.36,-1.88">
        <lane id="85_0" index="0" disallow="pedestrian tram rail_urban rail rail_electric rail_fast ship" speed="36.11" length="70.06" width="3.50" customShape="1" shape="281.83,5.55 257.83,1.09 247.34,-1.02 235.02,-3.58 228.12,-4.68 222.19,-5.29 217.25,-5.48 212.78,-5.28"/>
    </edge>
    <edge id="86" from="21" to="12" priority="3" type="highway.residential" spreadType="center" length="70.00" shape="204.69,-5.37 281.63,1.95">
        <lane id="86_0" index="0" disallow="pedestrian tram rail_urban rail rail_electric rail_fast ship" speed="36.11" length="70.00" width="3.50" customShape="1" shape="212.63,-8.78 217.25,-8.97 222.44,-8.78 228.58,-8.15 235.66,-7.02 248.06,-4.44 258.47,-2.35 281.63,1.95"/>
    </edge>

    <junction id="12" type="dead_end" x="281.63" y="1.95" incLanes="86_0" intLanes="" shape="281.95,0.23 281.31,3.67" rightOfWay="edgePriority"/>
    <junction id="14" type="dead_end" x="130.01" y="-39.85" incLanes="106_0" intLanes="" shape="129.07,-38.38 130.95,-41.33" rightOfWay="edgePriority"/>
    <junction id="16" type="dead_end" x="558.45" y="113.89" incLanes="" intLanes="" shape="558.92,112.21 557.99,115.58" rightOfWay="edgePriority"/>
    <junction id="17" type="dead_end" x="281.83" y="5.55" incLanes="" intLanes="" shape="282.15,3.83 281.51,7.27" rightOfWay="edgePriority"/>
    <junction id="19" type="dead_end" x="497.40" y="40.71" incLanes="" intLanes="" shape="495.65,40.69 499.15,40.74" rightOfWay="edgePriority"/>
    <junction id="20" type="dead_end" x="131.18" y="-43.25" incLanes="" intLanes="" shape="130.24,-41.78 132.13,-44.72" rightOfWay="edgePriority"/>
    <junction id="21" type="priority" x="204.57" y="-3.62" incLanes="109_0 85_0 107_0" intLanes=":21_0_0 :21_1_0 :21_2_0 :21_3_0" shape="207.42,6.09 212.56,1.33 210.67,-1.28 210.47,-2.22 210.76,-2.91 211.56,-3.35 212.85,-3.54 212.56,-10.53 208.16,-10.18 204.86,-9.69 202.12,-9.30 199.43,-9.22 196.26,-9.67 192.09,-10.87 189.84,-4.24 194.01,-2.86 197.15,-1.77 199.65,-0.65 201.93,0.82 204.38,2.95">
        <request index="0" response="0000" foes="0010" cont="0"/>
        <request index="1" response="1001" foes="1001" cont="0"/>
        <request index="2" response="0000" foes="0000" cont="0"/>
        <request index="3" response="0000" foes="0010" cont="0"/>
    </junction>
    <junction id="22" type="priority" x="489.95" y="80.44" incLanes="112_0 237_0 110_0" intLanes=":22_0_0 :22_1_0 :22_2_0 :22_3_0 :22_4_0 :22_5_0" shape="495.59,89.32 498.23,82.84 496.01,81.35 495.37,80.37 495.06,79.23 495.07,77.92 495.41,76.46 488.74,74.34 487.41,76.48 486.42,77.03 485.23,77.22 483.82,77.06 482.20,76.55 479.62,83.06">
        <request index="0" response="000000" foes="001000" cont="0"/>
        <request index="1" response="110000" foes="111000" cont="0"/>
        <request index="2" response="100000" foes="100000" cont="0"/>
        <request index="3" response="100011" foes="100011" cont="0"/>
        <request index="4" response="000000" foes="000010" cont="0"/>
        <request index="5" response="000000" foes="001110" cont="0"/>
    </junction>
    <junction id="5" type="dead_end" x="559.42" y="110.53" incLanes="113_0" intLanes="" shape="559.88,108.84 558.95,112.21" rightOfWay="edgePriority"/>
    <junction id="7" type="dead_end" x="493.91" y="40.63" incLanes="238_0" intLanes="" shape="492.16,40.61 495.65,40.66" rightOfWay="edgePriority"/>

    <connection from="107" to="86" fromLane="0" toLane="0" contPos="-4.00" shape="191.53,-9.21 192.35,-8.97 194.67,-8.57 198.57,-8.31 204.56,-8.34 212.63,-8.78" via=":21_2_0" dir="R" state="M"/>
    <connection from="107" to="110" fromLane="0" toLane="0" contPos="-4.00" shape="191.53,-9.21 196.58,-7.26 200.95,-5.16 204.65,-2.97 207.71,-0.76 210.13,1.37 211.27,2.52" via=":21_3_0" dir="s" state="M"/>
    <connection from="109" to="106" fromLane="0" toLane="0" contPos="-4.00" shape="208.73,4.93 207.70,3.88 205.47,1.93 202.66,-0.10 199.22,-2.12 195.14,-4.07 190.40,-5.90" via=":21_0_0" dir="s" state="M"/>
    <connection from="110" to="238" fromLane="0" toLane="0" contPos="-4.00" shape="481.52,78.17 482.88,78.62 484.27,78.92 485.22,78.99 486.18,78.93 487.10,78.69 487.96,78.28 488.70,77.69 489.33,76.97 490.05,75.74 490.41,74.87" via=":22_4_0" dir="r" state="M"/>
    <connection from="110" to="113" fromLane="0" toLane="0" contPos="-4.00" shape="481.52,78.17 489.52,81.30 497.57,84.46" via=":22_5_0" dir="s" state="M"/>
    <connection from="112" to="109" fromLane="0" toLane="0" contPos="-4.00" shape="496.25,87.70 488.24,84.56 480.26,81.43" via=":22_0_0" dir="s" state="M"/>
    <connection from="112" to="238" fromLane="0" toLane="0" contPos="-4.00" shape="496.25,87.70 494.36,86.82 492.61,85.67 491.59,84.72 490.74,83.61 490.11,82.37 489.72,81.03 489.57,79.64 489.72,77.56 490.19,75.52 490.41,74.87" via=":22_1_0" dir="l" state="m"/>
    <connection from="237" to="113" fromLane="0" toLane="0" contPos="-4.00" shape="493.71,76.02 493.53,76.55 493.38,77.09 493.26,77.64 493.17,78.19 493.12,78.75 493.11,79.31 493.15,79.87 493.24,80.42 493.41,80.96 493.64,81.47 493.93,81.94 494.28,82.38 494.68,82.78 495.11,83.14 495.57,83.46 496.05,83.75 496.54,84.01 497.05,84.25 497.57,84.46" via=":22_2_0" dir="r" state="m"/>
    <connection from="237" to="109" fromLane="0" toLane="0" contPos="-4.00" shape="493.71,76.02 493.18,77.31 492.15,79.12 491.16,80.29 489.97,81.27 488.56,82.00 487.09,82.42 485.59,82.56 484.13,82.47 482.13,82.06 480.26,81.43" via=":22_3_0" dir="l" state="m"/>
    <connection from="85" to="106" fromLane="0" toLane="0" contPos="-4.00" shape="212.84,-5.29 204.47,-4.84 198.18,-4.83 194.00,-5.14 191.43,-5.60 190.40,-5.90" via=":21_1_0" dir="s" state="m"/>

    <connection from=":21_0" to="106" fromLane="0" toLane="0" dir="s" state="M"/>
    <connection from=":21_1" to="106" fromLane="0" toLane="0" dir="s" state="M"/>
    <connection from=":21_2" to="86" fromLane="0" toLane="0" dir="R" state="M"/>
    <connection from=":21_3" to="110" fromLane="0" toLane="0" dir="s" state="M"/>
    <connection from=":22_0" to="109" fromLane="0" toLane="0" dir="s" state="M"/>
    <connection from=":22_1" to="238" fromLane="0" toLane="0" dir="l" state="M"/>
    <connection from=":22_2" to="113" fromLane="0" toLane="0" dir="r" state="M"/>
    <connection from=":22_3" to="109" fromLane="0" toLane="0" dir="l" state="M"/>
    <connection from=":22_4" to="238" fromLane="0" toLane="0" dir="r" state="M"/>
    <connection from=":22_5" to="113" fromLane="0" toLane="0" dir="s" state="M"/>

</net>