<routes>
	<vehicle depart="0.1" departLane="0" departPos="91.5881061333176" departSpeed="6.8979695" id="315" type="bicycle">
		<route edges="110 238"/>
	</vehicle>
	<vehicle depart="0.1" departLane="0" departPos="1.0" departSpeed="0.65177972" id="349" type="bicycle">
		<route edges="107 110"/>
	</vehicle>
	<vehicle depart="0.1" departLane="0" departPos="26.41044698103045" departSpeed="4.9269632" id="347" type="bus">
		<route edges="107 110 238"/>
	</vehicle>
	<vehicle depart="0.1" departLane="0" departPos="70.38085306701741" departSpeed="0.0" id="34" type="passenger">
		<route edges="85 106"/>
	</vehicle>
	<vehicle depart="0.1" departLane="0" departPos="63.44484263509027" departSpeed="0.0" id="38" type="passenger">
		<route edges="85 106"/>
	</vehicle>
	<vehicle depart="0.1" departLane="0" departPos="70.65476407887705" departSpeed="17.952367" id="324" type="passenger">
		<route edges="110 238"/>
	</vehicle>
	<vehicle depart="0.1" departLane="0" departPos="56.279396495004605" departSpeed="0.0" id="326" type="passenger">
		<route edges="85 106"/>
	</vehicle>
	<vehicle depart="0.1" departLane="0" departPos="47.86874510799876" departSpeed="16.486349" id="327" type="passenger">
		<route edges="110 238"/>
	</vehicle>
	<vehicle depart="0.1" departLane="0" departPos="26.487176861556563" departSpeed="14.878833" id="330" type="passenger">
		<route edges="110 238"/>
	</vehicle>
	<vehicle depart="0.1" departLane="0" departPos="44.53775222082107" departSpeed="0.00020338706" id="331" type="passenger">
		<route edges="85 106"/>
	</vehicle>
	<vehicle depart="0.1" departLane="0" departPos="37.16446499186381" departSpeed="0.0013551357" id="334" type="passenger">
		<route edges="85 106"/>
	</vehicle>
	<vehicle depart="0.1" departLane="0" departPos="7.600605255469423" departSpeed="13.678656" id="335" type="passenger">
		<route edges="110 238"/>
	</vehicle>
	<vehicle depart="0.1" departLane="0" departPos="29.91574128873452" departSpeed="0.0064841218" id="337" type="passenger">
		<route edges="85 106"/>
	</vehicle>
	<vehicle depart="0.1" departLane="0" departPos="22.69341971085955" departSpeed="0.022652673" id="339" type="passenger">
		<route edges="85 106"/>
	</vehicle>
	<vehicle depart="0.1" departLane="0" departPos="15.365249717171212" departSpeed="0.065490117" id="343" type="passenger">
		<route edges="85 106"/>
	</vehicle>
	<vehicle depart="0.1" departLane="0" departPos="51.21327528091683" departSpeed="10.15261" id="344" type="passenger">
		<route edges="107 86"/>
	</vehicle>
	<vehicle depart="0.1" departLane="0" departPos="7.963115327695079" departSpeed="0.15883788" id="346" type="passenger">
		<route edges="85 106"/>
	</vehicle>
	<vehicle depart="0.1" departLane="0" departPos="8.454009873654403" departSpeed="3.0901699" id="348" type="passenger">
		<route edges="107 110"/>
	</vehicle>
	<vehicle depart="0.1" departLane="0" departPos="49.19920845188711" departSpeed="1.8503692e-05" id="329" type="motorcycle">
		<route edges="85 106"/>
	</vehicle>
	<vehicle depart="0.1" departLane="0" departPos="12.796860976803364" departSpeed="13.354723" id="338" type="motorcycle">
		<route edges=":21_2 86"/>
	</vehicle>
</routes>
