<routes>
	<vehicle depart="0.1" departLane="0" departPos="1.0" departSpeed="6.8276779" id="320" type="bicycle">
		<route edges="1546 1543"/>
	</vehicle>
	<vehicle depart="0.1" departLane="0" departPos="11.08786417809106" departSpeed="1.4218278" id="326" type="bus">
		<route edges="1547 1550"/>
	</vehicle>
	<vehicle depart="0.1" departLane="0" departPos="7.3301418760970325" departSpeed="2.2148263" id="32" type="passenger">
		<route edges=":33_2 1546"/>
	</vehicle>
	<vehicle depart="0.1" departLane="0" departPos="2.5" departSpeed="6.2909382" id="33" type="passenger">
		<route edges=":32_1 1417"/>
	</vehicle>
	<vehicle depart="0.1" departLane="0" departPos="66.61266208928636" departSpeed="1.9926892" id="312" type="passenger">
		<route edges="1416 1549"/>
	</vehicle>
	<vehicle depart="0.1" departLane="0" departPos="12.01007306966865" departSpeed="0.076494364" id="324" type="passenger">
		<route edges=":33_1 1422"/>
	</vehicle>
	<vehicle depart="0.1" departLane="0" departPos="21.066099479087484" departSpeed="0.41798776" id="334" type="passenger">
		<route edges=":32_2 1549 1546"/>
	</vehicle>
	<vehicle depart="0.1" departLane="0" departPos="6.4993936446843765" departSpeed="1.7874088" id="340" type="passenger">
		<route edges=":33_4 1422"/>
	</vehicle>
	<vehicle depart="0.1" departLane="0" departPos="12.34748613430322" departSpeed="1.3789901" id="345" type="passenger">
		<route edges=":32_5 1549"/>
	</vehicle>
	<vehicle depart="0.1" departLane="0" departPos="9.0418416514174" departSpeed="5.3761832" id="30" type="truck">
		<route edges="1550 1553"/>
	</vehicle>
</routes>
