<routes>
	<vehicle depart="0.1" departLane="0" departPos="18.707539706216423" departSpeed="0.37070274" id="33" type="passenger">
		<route edges=":51_5 85916"/>
	</vehicle>
	<vehicle depart="0.1" departLane="0" departPos="6.8565370043517415" departSpeed="0.69410772" id="34" type="passenger">
		<route edges=":51_5 85916"/>
	</vehicle>
	<vehicle depart="0.1" departLane="0" departPos="30.266651528753357" departSpeed="5.5606429" id="39" type="passenger">
		<route edges=":53_3 85915 85771"/>
	</vehicle>
	<vehicle depart="0.1" departLane="0" departPos="8.40013297290319" departSpeed="0.56663773" id="312" type="passenger">
		<route edges=":55_5 85768"/>
	</vehicle>
	<vehicle depart="0.1" departLane="0" departPos="10.450445314454221" departSpeed="7.3160692" id="322" type="passenger">
		<route edges=":51_1 85767 85478"/>
	</vehicle>
	<vehicle depart="0.1" departLane="0" departPos="19.95092425907135" departSpeed="0.37431752" id="324" type="passenger">
		<route edges="85770 85767"/>
	</vehicle>
	<vehicle depart="0.1" departLane="0" departPos="2.5" departSpeed="0.78992285" id="327" type="passenger">
		<route edges=":55_2 85768"/>
	</vehicle>
	<vehicle depart="0.1" departLane="0" departPos="67.64888689290845" departSpeed="0.64489897" id="313" type="truck">
		<route edges="85592 85768"/>
	</vehicle>
</routes>
