<!-- generated on Tue Feb  9 22:16:21 2021 by Eclipse SUMO netconvert Version 1.8.0
<configuration xmlns:xsi="http://www.w3.org/2001/XMLSchema-instance" xsi:noNamespaceSchemaLocation="http://sumo.dlr.de/xsd/netconvertConfiguration.xsd">

    <input>
        <node-files value="./converted_scenarios/scenario-factory/FRA_Anglet-2_2_I-1-1/FRA_Anglet-2_2_I-1-1.nod.xml"/>
        <edge-files value="./converted_scenarios/scenario-factory/FRA_Anglet-2_2_I-1-1/FRA_Anglet-2_2_I-1-1.edg.xml"/>
        <connection-files value="./converted_scenarios/scenario-factory/FRA_Anglet-2_2_I-1-1/FRA_Anglet-2_2_I-1-1.con.xml"/>
        <tllogic-files value="./converted_scenarios/scenario-factory/FRA_Anglet-2_2_I-1-1/FRA_Anglet-2_2_I-1-1.tll.xml"/>
        <type-files value="/home/zen/commonroad-interactive-benchmarks/install/commonroad-map-tool/crmapconverter/sumo_map/templates/DEU.typ.xml"/>
    </input>

    <output>
        <output-file value="./converted_scenarios/scenario-factory/FRA_Anglet-2_2_I-1-1/FRA_Anglet-2_2_I-1-1.net.xml"/>
    </output>

    <processing>
        <geometry.remove.keep-edges.explicit value="true"/>
        <geometry.avoid-overlap value="true"/>
        <offset.disable-normalization value="true"/>
    </processing>

    <junctions>
        <no-turnarounds value="true"/>
        <junctions.internal-link-detail value="20"/>
    </junctions>

    <report>
        <aggregate-warnings value="5"/>
    </report>

    <random_number>
        <seed value="1234"/>
    </random_number>

</configuration>
--><net xmlns:xsi="http://www.w3.org/2001/XMLSchema-instance" version="1.6" junctionCornerDetail="5" junctionLinkDetail="20" limitTurnSpeed="5.50" xsi:noNamespaceSchemaLocation="http://sumo.dlr.de/xsd/net_file.xsd">

    <location netOffset="0.00,0.00" convBoundary="-419.69,-981.76,-191.44,-849.29" origBoundary="-419.69,-981.76,-191.44,-849.29" projParameter="!"/>

    <type id="highway.bridleway" priority="1" speed="2.78" allow="pedestrian" oneway="1" width="2.00"/>
    <type id="highway.bus_guideway" priority="1" speed="27.78" allow="bus" oneway="1"/>
    <type id="highway.cycleway" priority="1" speed="8.33" allow="bicycle" oneway="0" width="1.00"/>
    <type id="highway.footway" priority="1" speed="2.78" allow="pedestrian" oneway="1" width="2.00"/>
    <type id="highway.ford" priority="1" speed="2.78" allow="army" oneway="0"/>
    <type id="highway.living_street" priority="2" speed="2.78" disallow="tram rail_urban rail rail_electric rail_fast ship" oneway="0"/>
    <type id="highway.motorway" priority="14" speed="39.44" allow="private emergency authority army vip passenger hov taxi bus coach delivery truck trailer motorcycle evehicle custom1 custom2" oneway="1"/>
    <type id="highway.motorway_link" priority="9" speed="22.22" allow="private emergency authority army vip passenger hov taxi bus coach delivery truck trailer motorcycle evehicle custom1 custom2" oneway="1"/>
    <type id="highway.path" priority="1" speed="2.78" allow="pedestrian bicycle" oneway="0" width="2.00"/>
    <type id="highway.pedestrian" priority="1" speed="2.78" allow="pedestrian" oneway="1" width="2.00"/>
    <type id="highway.primary" priority="12" speed="27.78" disallow="pedestrian tram rail_urban rail rail_electric rail_fast ship" oneway="0"/>
    <type id="highway.primary_link" priority="7" speed="22.22" disallow="pedestrian tram rail_urban rail rail_electric rail_fast ship" oneway="0"/>
    <type id="highway.raceway" priority="15" speed="83.33" allow="vip" oneway="0"/>
    <type id="highway.residential" priority="3" speed="13.89" disallow="pedestrian tram rail_urban rail rail_electric rail_fast ship" oneway="0"/>
    <type id="highway.secondary" priority="11" speed="27.78" disallow="pedestrian tram rail_urban rail rail_electric rail_fast ship" oneway="0"/>
    <type id="highway.secondary_link" priority="6" speed="22.22" disallow="pedestrian tram rail_urban rail rail_electric rail_fast ship" oneway="0"/>
    <type id="highway.service" priority="1" speed="5.56" allow="pedestrian delivery bicycle" oneway="0"/>
    <type id="highway.stairs" priority="1" speed="1.39" allow="pedestrian" oneway="1" width="2.00"/>
    <type id="highway.step" priority="1" speed="1.39" allow="pedestrian" oneway="1" width="2.00"/>
    <type id="highway.steps" priority="1" speed="1.39" allow="pedestrian" oneway="1" width="2.00"/>
    <type id="highway.tertiary" priority="10" speed="22.22" disallow="pedestrian tram rail_urban rail rail_electric rail_fast ship" oneway="0"/>
    <type id="highway.tertiary_link" priority="5" speed="22.22" disallow="pedestrian tram rail_urban rail rail_electric rail_fast ship" oneway="0"/>
    <type id="highway.track" priority="1" speed="5.56" allow="pedestrian motorcycle moped bicycle" oneway="0"/>
    <type id="highway.trunk" priority="13" speed="27.78" disallow="pedestrian bicycle tram rail_urban rail rail_electric rail_fast ship" oneway="0"/>
    <type id="highway.trunk_link" priority="8" speed="22.22" disallow="pedestrian bicycle tram rail_urban rail rail_electric rail_fast ship" oneway="0"/>
    <type id="highway.unclassified" priority="4" speed="13.89" disallow="pedestrian tram rail_urban rail rail_electric rail_fast ship" oneway="0"/>
    <type id="highway.unsurfaced" priority="1" speed="8.33" disallow="tram rail_urban rail rail_electric rail_fast ship" oneway="0"/>
    <type id="railway.highspeed" priority="21" speed="69.44" allow="rail_fast" oneway="1"/>
    <type id="railway.light_rail" priority="19" speed="27.78" allow="rail_urban" oneway="1"/>
    <type id="railway.preserved" priority="16" speed="27.78" allow="rail" oneway="1"/>
    <type id="railway.rail" priority="20" speed="44.44" allow="rail" oneway="1"/>
    <type id="railway.subway" priority="18" speed="27.78" allow="rail_urban" oneway="1"/>
    <type id="railway.tram" priority="17" speed="13.89" allow="tram" oneway="1"/>

    <edge id=":49_0" function="internal">
        <lane id=":49_0_0" index="0" disallow="pedestrian tram rail_urban rail rail_electric rail_fast ship" speed="9.40" length="19.15" width="3.50" shape="-249.77,-928.35 -250.60,-929.25 -251.51,-929.65 -252.49,-929.78 -253.49,-929.73 -254.47,-929.55 -255.43,-929.30 -257.30,-928.62 -259.12,-927.81 -261.77,-926.44 -265.20,-924.41 -266.89,-923.34"/>
    </edge>
    <edge id=":49_1" function="internal">
        <lane id=":49_1_0" index="0" disallow="pedestrian tram rail_urban rail rail_electric rail_fast ship" speed="36.11" length="8.75" width="3.48" shape="-249.77,-928.35 -250.15,-928.88 -250.49,-929.37 -250.79,-929.80 -251.07,-930.20 -251.31,-930.57 -251.54,-930.91 -251.74,-931.23 -251.93,-931.53 -252.11,-931.83 -252.28,-932.13 -252.46,-932.43 -252.63,-932.75 -252.82,-933.08 -253.01,-933.44 -253.22,-933.83 -253.46,-934.25 -253.71,-934.72 -254.00,-935.24 -254.32,-935.81"/>
    </edge>
    <edge id=":49_2" function="internal">
        <lane id=":49_2_0" index="0" disallow="pedestrian tram rail_urban rail rail_electric rail_fast ship" speed="36.11" length="8.82" width="3.50" shape="-251.37,-937.70 -247.55,-931.35 -246.78,-930.17"/>
    </edge>
    <edge id=":49_3" function="internal">
        <lane id=":49_3_0" index="0" disallow="pedestrian tram rail_urban rail rail_electric rail_fast ship" speed="8.33" length="14.51" width="3.50" shape="-257.28,-933.91 -257.90,-932.48 -259.26,-930.28 -260.90,-928.28 -262.75,-926.46 -264.76,-924.82 -266.89,-923.34"/>
    </edge>
    <edge id=":49_4" function="internal">
        <lane id=":49_4_0" index="0" disallow="pedestrian tram rail_urban rail rail_electric rail_fast ship" speed="36.11" length="4.01" width="3.50" shape="-268.79,-926.28 -268.54,-926.44 -268.31,-926.59 -268.11,-926.72 -267.92,-926.85 -267.76,-926.96 -267.60,-927.07 -267.46,-927.17 -267.33,-927.27 -267.20,-927.36 -267.07,-927.46 -266.95,-927.56 -266.82,-927.66 -266.68,-927.77 -266.54,-927.89 -266.38,-928.02 -266.21,-928.16 -266.02,-928.31 -265.81,-928.49 -265.58,-928.68"/>
    </edge>
    <edge id=":49_5" function="internal">
        <lane id=":49_5_0" index="0" disallow="pedestrian tram rail_urban rail rail_electric rail_fast ship" speed="10.43" length="24.59" width="3.50" shape="-268.80,-926.27 -266.81,-927.53 -262.78,-929.84 -259.58,-931.37 -257.31,-932.24 -254.94,-932.88 -253.64,-933.07 -252.30,-933.11 -250.90,-932.95 -249.50,-932.51 -248.16,-931.71 -246.78,-930.17"/>
    </edge>
    <edge id=":51_0" function="internal">
        <lane id=":51_0_0" index="0" disallow="pedestrian tram rail_urban rail rail_electric rail_fast ship" speed="17.15" length="38.64" width="3.50" shape="-306.54,-900.56 -311.12,-898.04 -315.55,-895.28 -318.95,-892.86 -322.18,-890.21 -324.45,-888.05 -326.54,-885.71 -328.41,-883.20 -329.97,-880.48 -330.80,-878.57 -331.44,-876.58 -331.87,-874.54 -332.00,-873.50"/>
    </edge>
    <edge id=":51_1" function="internal">
        <lane id=":51_1_0" index="0" disallow="pedestrian tram rail_urban rail rail_electric rail_fast ship" speed="11.10" length="39.41" width="3.50" shape="-306.54,-900.56 -311.00,-898.46 -314.08,-897.30 -317.25,-896.45 -318.87,-896.18 -320.50,-896.06 -322.14,-896.11 -323.76,-896.39 -325.31,-896.94 -326.72,-897.77 -327.95,-898.86 -328.95,-900.16 -329.75,-901.59 -330.36,-903.12 -330.81,-904.69 -331.14,-906.30 -331.50,-909.57 -331.57,-912.85 -331.53,-914.50"/>
    </edge>
    <edge id=":51_2" function="internal">
        <lane id=":51_2_0" index="0" disallow="pedestrian tram rail_urban rail rail_electric rail_fast ship" speed="9.98" length="31.59" width="3.50" shape="-328.03,-914.35 -328.07,-912.94 -328.01,-910.13 -327.70,-907.37 -327.43,-906.09 -327.06,-904.83 -326.58,-903.66 -325.99,-902.60 -325.26,-901.68 -324.41,-900.93 -323.42,-900.38 -322.33,-900.01 -321.13,-899.83 -319.88,-899.80 -318.58,-899.91 -317.29,-900.13 -314.62,-900.86 -312.02,-901.84 -308.15,-903.67"/>
    </edge>
    <edge id=":51_3" function="internal">
        <lane id=":51_3_0" index="0" disallow="pedestrian tram rail_urban rail rail_electric rail_fast ship" speed="36.11" length="41.05" width="3.50" shape="-328.03,-914.35 -328.62,-905.12 -329.86,-892.87 -331.90,-874.52 -332.00,-873.50"/>
    </edge>
    <edge id=":51_4" function="internal">
        <lane id=":51_4_0" index="0" disallow="pedestrian tram rail_urban rail rail_electric rail_fast ship" speed="36.11" length="40.87" width="3.50" shape="-335.48,-873.83 -335.38,-874.87 -333.34,-893.18 -332.11,-905.36 -331.53,-914.50"/>
    </edge>
    <edge id=":51_5" function="internal">
        <lane id=":51_5_0" index="0" disallow="pedestrian tram rail_urban rail rail_electric rail_fast ship" speed="17.90" length="42.13" width="3.50" shape="-335.48,-873.83 -335.33,-875.03 -334.87,-877.32 -334.16,-879.57 -333.24,-881.75 -331.54,-884.77 -329.52,-887.58 -327.27,-890.16 -324.82,-892.53 -321.37,-895.41 -317.73,-898.03 -313.02,-900.98 -308.15,-903.67"/>
    </edge>
    <edge id=":52_0" function="internal">
        <lane id=":52_0_0" index="0" disallow="pedestrian tram rail_urban rail rail_electric rail_fast ship" speed="36.11" length="24.95" width="3.49" shape="-269.99,-885.27 -273.94,-893.70 -277.27,-900.06 -279.89,-904.47 -281.75,-907.24"/>
    </edge>
    <edge id=":52_1" function="internal">
        <lane id=":52_1_0" index="0" disallow="pedestrian tram rail_urban rail rail_electric rail_fast ship" speed="12.64" length="32.89" width="3.50" shape="-269.99,-885.26 -271.39,-888.87 -272.07,-891.30 -272.52,-893.78 -272.71,-896.29 -272.57,-898.81 -272.10,-901.29 -271.27,-903.67 -270.12,-905.91 -268.67,-907.98 -267.00,-909.86 -265.14,-911.56 -262.08,-913.82"/>
    </edge>
    <edge id=":52_2" function="internal">
        <lane id=":52_2_0" index="0" disallow="pedestrian tram rail_urban rail rail_electric rail_fast ship" speed="11.64" length="27.85" width="3.48" shape="-260.15,-910.91 -262.83,-908.93 -264.41,-907.47 -265.83,-905.88 -267.04,-904.15 -267.99,-902.29 -268.67,-900.33 -269.06,-898.28 -269.16,-896.18 -269.00,-894.06 -268.61,-891.95 -268.03,-889.86 -266.82,-886.76"/>
    </edge>
    <edge id=":52_3" function="internal">
        <lane id=":52_3_0" index="0" disallow="pedestrian tram rail_urban rail rail_electric rail_fast ship" speed="10.28" length="24.11" width="3.49" shape="-260.15,-910.91 -264.70,-908.13 -268.24,-906.34 -270.70,-905.35 -273.24,-904.62 -274.55,-904.40 -275.87,-904.31 -277.19,-904.39 -278.48,-904.69 -279.68,-905.23 -280.73,-906.03 -281.75,-907.24"/>
    </edge>
    <edge id=":52_4" function="internal">
        <lane id=":52_4_0" index="0" disallow="pedestrian tram rail_urban rail rail_electric rail_fast ship" speed="9.09" length="18.54" width="3.50" shape="-278.78,-909.08 -278.34,-908.55 -277.71,-908.13 -276.94,-907.88 -276.06,-907.79 -275.11,-907.83 -274.12,-907.98 -273.12,-908.22 -271.04,-908.92 -269.02,-909.81 -266.00,-911.40 -262.08,-913.82"/>
    </edge>
    <edge id=":52_5" function="internal">
        <lane id=":52_5_0" index="0" disallow="pedestrian tram rail_urban rail rail_electric rail_fast ship" speed="36.11" length="25.36" width="3.48" shape="-278.78,-909.08 -276.96,-906.38 -274.25,-901.83 -270.83,-895.31 -266.82,-886.76"/>
    </edge>
    <edge id=":53_0" function="internal">
        <lane id=":53_0_0" index="0" disallow="pedestrian tram rail_urban rail rail_electric rail_fast ship" speed="8.66" length="15.55" width="3.50" shape="-281.89,-907.46 -282.25,-907.85 -282.88,-908.37 -283.61,-908.77 -284.43,-909.03 -285.33,-909.17 -286.28,-909.19 -287.23,-909.13 -289.29,-908.74 -291.32,-908.11 -293.33,-907.32 -296.32,-905.88"/>
    </edge>
    <edge id=":53_1" function="internal">
        <lane id=":53_1_0" index="0" disallow="pedestrian tram rail_urban rail rail_electric rail_fast ship" speed="9.40" length="19.82" width="3.50" shape="-281.89,-907.46 -282.53,-908.61 -283.01,-910.20 -283.08,-911.88 -282.78,-913.46 -282.21,-914.88 -281.48,-916.14 -280.64,-917.27 -279.73,-918.28 -278.76,-919.24 -276.76,-920.92 -273.64,-923.13"/>
    </edge>
    <edge id=":53_2" function="internal">
        <lane id=":53_2_0" index="0" disallow="pedestrian tram rail_urban rail rail_electric rail_fast ship" speed="8.08" length="14.47" width="3.49" shape="-271.73,-920.20 -274.27,-918.43 -275.88,-917.14 -276.65,-916.44 -277.38,-915.71 -278.06,-914.93 -278.66,-914.09 -279.16,-913.19 -279.49,-912.21 -279.59,-911.18 -279.38,-910.17 -278.89,-909.25"/>
    </edge>
    <edge id=":53_3" function="internal">
        <lane id=":53_3_0" index="0" disallow="pedestrian tram rail_urban rail rail_electric rail_fast ship" speed="36.11" length="28.47" width="3.50" shape="-271.73,-920.20 -277.97,-916.26 -287.05,-910.92 -296.32,-905.88"/>
    </edge>
    <edge id=":53_4" function="internal">
        <lane id=":53_4_0" index="0" disallow="pedestrian tram rail_urban rail rail_electric rail_fast ship" speed="36.11" length="28.12" width="3.50" shape="-297.94,-908.99 -288.77,-913.96 -279.79,-919.25 -273.64,-923.13"/>
    </edge>
    <edge id=":53_5" function="internal">
        <lane id=":53_5_0" index="0" disallow="pedestrian tram rail_urban rail rail_electric rail_fast ship" speed="9.99" length="20.85" width="3.49" shape="-297.94,-908.99 -294.40,-910.66 -291.96,-911.59 -289.46,-912.29 -286.88,-912.68 -285.58,-912.70 -284.29,-912.58 -283.02,-912.29 -281.81,-911.80 -280.70,-911.12 -279.73,-910.26 -278.89,-909.25"/>
    </edge>
    <edge id=":54_0" function="internal">
        <lane id=":54_0_0" index="0" disallow="pedestrian tram rail_urban rail rail_electric rail_fast ship" speed="11.06" length="28.28" width="3.50" shape="-236.90,-903.50 -238.75,-906.47 -240.09,-908.28 -241.59,-909.96 -243.27,-911.46 -244.18,-912.13 -245.14,-912.72 -246.14,-913.23 -247.19,-913.64 -248.27,-913.94 -249.38,-914.14 -250.51,-914.22 -251.63,-914.19 -252.75,-914.06 -253.85,-913.84 -255.99,-913.14 -258.03,-912.18 -259.97,-911.02"/>
    </edge>
    <edge id=":54_1" function="internal">
        <lane id=":54_1_0" index="0" disallow="pedestrian tram rail_urban rail rail_electric rail_fast ship" speed="36.11" length="27.80" width="3.48" shape="-236.90,-903.50 -238.95,-907.33 -244.33,-918.56 -247.15,-924.01 -249.65,-928.19"/>
    </edge>
    <edge id=":54_2" function="internal">
        <lane id=":54_2_0" index="0" disallow="pedestrian tram rail_urban rail rail_electric rail_fast ship" speed="36.11" length="27.75" width="3.50" shape="-246.67,-930.00 -244.15,-925.80 -241.27,-920.26 -235.87,-908.99 -233.94,-905.36"/>
    </edge>
    <edge id=":54_3" function="internal">
        <lane id=":54_3_0" index="0" disallow="pedestrian tram rail_urban rail rail_electric rail_fast ship" speed="10.50" length="25.21" width="3.50" shape="-246.67,-930.00 -246.25,-929.13 -245.89,-927.91 -245.81,-926.63 -245.99,-925.37 -246.38,-924.16 -246.92,-923.00 -247.58,-921.91 -249.13,-919.89 -250.89,-918.04 -253.76,-915.51 -257.85,-912.45 -259.97,-911.02"/>
    </edge>
    <edge id=":54_4" function="internal">
        <lane id=":54_4_0" index="0" disallow="pedestrian tram rail_urban rail rail_electric rail_fast ship" speed="9.23" length="19.81" width="3.48" shape="-261.87,-913.96 -260.03,-915.20 -256.43,-917.85 -253.90,-919.98 -252.37,-921.48 -250.99,-923.09 -250.43,-923.89 -249.95,-924.73 -249.59,-925.56 -249.39,-926.34 -249.35,-927.05 -249.45,-927.68 -249.65,-928.19"/>
    </edge>
    <edge id=":54_5" function="internal">
        <lane id=":54_5_0" index="0" disallow="pedestrian tram rail_urban rail rail_electric rail_fast ship" speed="12.07" length="33.93" width="3.50" shape="-261.87,-913.96 -259.61,-915.31 -257.19,-916.45 -254.63,-917.31 -253.25,-917.60 -251.86,-917.78 -250.45,-917.83 -249.04,-917.74 -247.63,-917.52 -246.26,-917.15 -244.94,-916.65 -243.68,-916.03 -242.49,-915.31 -241.34,-914.49 -239.34,-912.72 -237.55,-910.73 -235.97,-908.62 -233.94,-905.36"/>
    </edge>
    <edge id=":55_0" function="internal">
        <lane id=":55_0_0" index="0" disallow="pedestrian tram rail_urban rail rail_electric rail_fast ship" speed="10.41" length="26.90" width="3.50" shape="-331.51,-914.73 -331.56,-917.01 -331.70,-918.07 -331.93,-919.12 -332.26,-920.12 -332.69,-921.07 -333.23,-921.95 -333.87,-922.76 -334.61,-923.49 -335.44,-924.14 -336.34,-924.71 -337.32,-925.20 -338.34,-925.62 -339.39,-925.96 -341.66,-926.48 -343.97,-926.78 -347.54,-926.93 -351.16,-926.80"/>
    </edge>
    <edge id=":55_1" function="internal">
        <lane id=":55_1_0" index="0" disallow="pedestrian tram rail_urban rail rail_electric rail_fast ship" speed="14.79" length="31.25" width="3.50" shape="-331.51,-914.73 -331.21,-918.27 -330.58,-921.77 -329.57,-925.20 -328.65,-927.44 -327.52,-929.59 -326.18,-931.62 -324.64,-933.51 -322.92,-935.23 -321.04,-936.76 -319.02,-938.11 -315.87,-939.76"/>
    </edge>
    <edge id=":55_2" function="internal">
        <lane id=":55_2_0" index="0" disallow="pedestrian tram rail_urban rail rail_electric rail_fast ship" speed="13.75" length="27.44" width="3.50" shape="-314.37,-936.61 -317.20,-935.12 -318.95,-933.94 -320.58,-932.60 -322.07,-931.11 -323.39,-929.47 -324.55,-927.71 -325.52,-925.84 -326.31,-923.89 -327.20,-920.85 -327.75,-917.74 -328.02,-914.59"/>
    </edge>
    <edge id=":55_3" function="internal">
        <lane id=":55_3_0" index="0" disallow="pedestrian tram rail_urban rail rail_electric rail_fast ship" speed="36.11" length="38.27" width="3.50" shape="-314.37,-936.61 -320.27,-934.11 -326.25,-931.92 -332.34,-930.06 -338.53,-928.56 -343.76,-927.62 -349.02,-926.98 -351.16,-926.80"/>
    </edge>
    <edge id=":55_4" function="internal">
        <lane id=":55_4_0" index="0" disallow="pedestrian tram rail_urban rail rail_electric rail_fast ship" speed="36.11" length="36.94" width="3.50" shape="-351.38,-930.30 -349.35,-930.46 -344.26,-931.08 -339.22,-931.99 -333.23,-933.44 -327.34,-935.25 -321.54,-937.37 -315.87,-939.76"/>
    </edge>
    <edge id=":55_5" function="internal">
        <lane id=":55_5_0" index="0" disallow="pedestrian tram rail_urban rail rail_electric rail_fast ship" speed="11.52" length="32.87" width="3.50" shape="-351.38,-930.30 -347.27,-930.44 -343.17,-930.24 -340.45,-929.85 -337.80,-929.19 -336.50,-928.74 -335.25,-928.20 -334.04,-927.54 -332.91,-926.77 -331.86,-925.89 -330.93,-924.89 -330.12,-923.79 -329.44,-922.60 -328.91,-921.34 -328.51,-920.03 -328.23,-918.69 -328.06,-917.33 -328.02,-914.59"/>
    </edge>

    <edge id="85443" from="43" to="49" priority="3" type="highway.residential" spreadType="center" length="25.24" shape="-263.65,-959.74 -256.72,-932.52">
        <lane id="85443_0" index="0" disallow="pedestrian tram rail_urban rail rail_electric rail_fast ship" speed="36.11" length="25.24" width="3.50" customShape="1" shape="-263.65,-959.74 -261.24,-955.36 -260.39,-953.81 -251.50,-937.62"/>
    </edge>
    <edge id="85477" from="34" to="55" priority="3" type="highway.residential" spreadType="center" length="70.00" shape="-258.73,-978.47 -331.06,-925.70">
        <lane id="85477_0" index="0" disallow="pedestrian tram rail_urban rail rail_electric rail_fast ship" speed="36.11" length="70.00" width="3.50" customShape="1" shape="-258.73,-978.47 -289.78,-951.49 -292.18,-949.63 -297.54,-945.81 -302.68,-942.57 -308.01,-939.64 -314.41,-936.59"/>
    </edge>
    <edge id="85478" from="55" to="39" priority="3" type="highway.residential" spreadType="center" length="69.99" shape="-333.12,-928.52 -260.28,-981.76">
        <lane id="85478_0" index="0" disallow="pedestrian tram rail_urban rail rail_electric rail_fast ship" speed="36.11" length="69.99" width="3.50" customShape="1" shape="-315.87,-939.76 -309.54,-942.79 -304.32,-945.66 -299.29,-948.85 -294.03,-952.62 -291.71,-954.46 -260.28,-981.76"/>
    </edge>
    <edge id="85561" from="49" to="53" priority="3" type="highway.residential" spreadType="center" length="5.78" shape="-257.35,-930.82 -282.37,-911.02">
        <lane id="85561_0" index="0" disallow="pedestrian tram rail_urban rail rail_electric rail_fast ship" speed="36.11" length="5.78" width="3.50" customShape="1" shape="-266.89,-923.34 -269.30,-921.77 -271.74,-920.19"/>
    </edge>
    <edge id="85562" from="53" to="49" priority="3" type="highway.residential" spreadType="center" length="5.78" shape="-284.54,-913.76 -259.52,-933.57">
        <lane id="85562_0" index="0" disallow="pedestrian tram rail_urban rail rail_electric rail_fast ship" speed="36.11" length="5.78" width="3.50" customShape="1" shape="-273.64,-923.13 -271.21,-924.71 -268.79,-926.28"/>
    </edge>
    <edge id="85564" from="54" to="49" priority="3" type="highway.residential" spreadType="center" length="0.20" shape="-249.64,-914.41 -259.92,-931.29">
        <lane id="85564_0" index="0" disallow="pedestrian tram rail_urban rail rail_electric rail_fast ship" speed="36.11" length="0.20" width="3.48" customShape="1" shape="-249.65,-928.19 -249.77,-928.35"/>
    </edge>
    <edge id="85565" from="49" to="54" priority="3" type="highway.residential" spreadType="center" length="0.20" shape="-256.94,-933.10 -246.67,-916.21">
        <lane id="85565_0" index="0" disallow="pedestrian tram rail_urban rail rail_electric rail_fast ship" speed="36.11" length="0.20" width="3.50" customShape="1" shape="-246.78,-930.17 -246.67,-930.00"/>
    </edge>
    <edge id="85567" from="52" to="54" priority="3" type="highway.residential" spreadType="center" length="0.25" shape="-270.83,-903.65 -249.05,-916.99">
        <lane id="85567_0" index="0" disallow="pedestrian tram rail_urban rail rail_electric rail_fast ship" speed="36.11" length="0.25" width="3.50" customShape="1" shape="-262.08,-913.82 -261.99,-913.88 -261.87,-913.96"/>
    </edge>
    <edge id="85568" from="54" to="52" priority="3" type="highway.residential" spreadType="center" length="0.22" shape="-247.22,-914.01 -269.00,-900.67">
        <lane id="85568_0" index="0" disallow="pedestrian tram rail_urban rail rail_electric rail_fast ship" speed="36.11" length="0.22" width="3.50" customShape="1" shape="-259.97,-911.02 -260.15,-910.90"/>
    </edge>
    <edge id="85570" from="53" to="52" priority="3" type="highway.residential" spreadType="center" length="0.20" shape="-282.47,-913.94 -268.85,-903.54">
        <lane id="85570_0" index="0" disallow="pedestrian tram rail_urban rail rail_electric rail_fast ship" speed="36.11" length="0.20" width="3.49" customShape="1" shape="-278.89,-909.25 -278.78,-909.08"/>
    </edge>
    <edge id="85571" from="52" to="53" priority="3" type="highway.residential" spreadType="center" length="0.26" shape="-270.97,-900.77 -284.58,-911.18">
        <lane id="85571_0" index="0" disallow="pedestrian tram rail_urban rail rail_electric rail_fast ship" speed="36.11" length="0.26" width="3.49" customShape="1" shape="-281.75,-907.24 -281.89,-907.46"/>
    </edge>
    <edge id="85582" from="40" to="52" priority="3" type="highway.residential" spreadType="center" length="43.77" shape="-238.19,-860.45 -271.30,-901.10">
        <lane id="85582_0" index="0" disallow="pedestrian tram rail_urban rail rail_electric rail_fast ship" speed="36.11" length="43.77" width="3.50" customShape="1" shape="-238.19,-860.45 -239.63,-861.09 -242.56,-862.29 -244.10,-862.65 -246.20,-862.78 -249.89,-862.82 -251.98,-863.14 -254.02,-863.68 -255.46,-864.33 -256.32,-864.94 -257.88,-866.36 -260.43,-869.03 -262.71,-871.93 -265.03,-875.46 -267.32,-879.61 -270.02,-885.34"/>
    </edge>
    <edge id="85583" from="52" to="14" priority="3" type="highway.residential" spreadType="center" length="41.15" shape="-268.59,-903.29 -236.80,-863.66">
        <lane id="85583_0" index="0" disallow="pedestrian tram rail_urban rail rail_electric rail_fast ship" speed="36.11" length="41.15" width="3.48" customShape="1" shape="-266.82,-886.76 -264.25,-881.29 -262.09,-877.36 -259.93,-874.06 -257.82,-871.36 -255.45,-868.88 -254.14,-867.67 -253.54,-867.26 -252.34,-866.83 -250.62,-866.45 -248.68,-866.28 -245.09,-866.23 -242.91,-865.97 -241.20,-865.52 -238.22,-864.29 -236.80,-863.66"/>
    </edge>
    <edge id="85591" from="55" to="41" priority="3" type="highway.residential" spreadType="center" length="70.00" shape="-332.32,-925.40 -419.50,-940.16">
        <lane id="85591_0" index="0" disallow="pedestrian tram rail_urban rail rail_electric rail_fast ship" speed="36.11" length="70.00" width="3.50" customShape="1" shape="-351.16,-926.80 -352.66,-926.71 -358.23,-926.61 -363.79,-926.86 -369.33,-927.45 -376.33,-928.60 -381.78,-929.78 -389.10,-931.80 -397.88,-934.26 -417.42,-939.61 -419.50,-940.16"/>
    </edge>
    <edge id="85592" from="46" to="55" priority="3" type="highway.residential" spreadType="center" length="70.01" shape="-419.69,-943.83 -331.73,-928.85">
        <lane id="85592_0" index="0" disallow="pedestrian tram rail_urban rail rail_electric rail_fast ship" speed="36.11" length="70.01" width="3.50" customShape="1" shape="-419.69,-943.83 -416.94,-943.11 -397.43,-937.76 -388.65,-935.32 -381.40,-933.29 -376.06,-932.12 -369.17,-930.96 -363.75,-930.37 -358.31,-930.11 -352.84,-930.21 -351.37,-930.30"/>
    </edge>
    <edge id="85767" from="51" to="55" priority="3" type="highway.residential" spreadType="center" length="0.24" shape="-325.31,-896.27 -333.77,-926.75">
        <lane id="85767_0" index="0" disallow="pedestrian tram rail_urban rail rail_electric rail_fast ship" speed="36.11" length="0.24" width="3.50" customShape="1" shape="-331.53,-914.50 -331.52,-914.62 -331.51,-914.74"/>
    </edge>
    <edge id="85768" from="55" to="51" priority="3" type="highway.residential" spreadType="center" length="0.24" shape="-330.40,-927.69 -321.94,-897.21">
        <lane id="85768_0" index="0" disallow="pedestrian tram rail_urban rail rail_electric rail_fast ship" speed="36.11" length="0.24" width="3.50" customShape="1" shape="-328.02,-914.59 -328.02,-914.46 -328.03,-914.35"/>
    </edge>
    <edge id="85770" from="45" to="51" priority="3" type="highway.residential" spreadType="center" length="24.34" shape="-337.78,-849.62 -325.30,-897.24">
        <lane id="85770_0" index="0" disallow="pedestrian tram rail_urban rail rail_electric rail_fast ship" speed="36.11" length="24.34" width="3.50" customShape="1" shape="-337.78,-849.62 -336.63,-861.72 -335.48,-873.85"/>
    </edge>
    <edge id="85771" from="51" to="33" priority="3" type="highway.residential" spreadType="center" length="24.32" shape="-321.92,-896.35 -334.30,-849.29">
        <lane id="85771_0" index="0" disallow="pedestrian tram rail_urban rail rail_electric rail_fast ship" speed="36.11" length="24.32" width="3.50" customShape="1" shape="-332.00,-873.50 -333.15,-861.39 -334.30,-849.29"/>
    </edge>
    <edge id="85915" from="53" to="51" priority="3" type="highway.residential" spreadType="center" length="11.53" shape="-282.68,-910.85 -322.99,-895.11">
        <lane id="85915_0" index="0" disallow="pedestrian tram rail_urban rail rail_electric rail_fast ship" speed="36.11" length="11.53" width="3.50" customShape="1" shape="-296.32,-905.88 -301.43,-903.22 -306.55,-900.56"/>
    </edge>
    <edge id="85916" from="51" to="53" priority="3" type="highway.residential" spreadType="center" length="11.52" shape="-324.26,-898.37 -283.95,-914.11">
        <lane id="85916_0" index="0" disallow="pedestrian tram rail_urban rail rail_electric rail_fast ship" speed="36.11" length="11.52" width="3.50" customShape="1" shape="-308.15,-903.67 -303.05,-906.33 -297.93,-908.99"/>
    </edge>
    <edge id="85939" from="44" to="54" priority="3" type="highway.residential" spreadType="center" length="54.47" shape="-191.44,-911.27 -248.36,-913.69">
        <lane id="85939_0" index="0" disallow="pedestrian tram rail_urban rail rail_electric rail_fast ship" speed="36.11" length="54.47" width="3.50" customShape="1" shape="-191.44,-911.27 -193.36,-910.19 -197.02,-907.72 -202.67,-903.31 -207.92,-899.28 -211.16,-897.17 -214.09,-895.63 -216.66,-894.65 -219.35,-894.03 -221.55,-893.83 -223.75,-893.92 -225.92,-894.30 -228.02,-894.97 -230.00,-895.93 -231.82,-897.18 -233.44,-898.68 -235.20,-900.80 -236.90,-903.50"/>
    </edge>
    <edge id="85940" from="54" to="28" priority="3" type="highway.residential" spreadType="center" length="49.19" shape="-248.20,-917.19 -193.11,-914.35">