<!-- generated on Tue Feb  9 22:19:26 2021 by Eclipse SUMO netconvert Version 1.8.0
<configuration xmlns:xsi="http://www.w3.org/2001/XMLSchema-instance" xsi:noNamespaceSchemaLocation="http://sumo.dlr.de/xsd/netconvertConfiguration.xsd">

    <input>
        <node-files value="./converted_scenarios/scenario-factory/ESP_Ceuta-7_1_I-1-1/ESP_Ceuta-7_1_I-1-1.nod.xml"/>
        <edge-files value="./converted_scenarios/scenario-factory/ESP_Ceuta-7_1_I-1-1/ESP_Ceuta-7_1_I-1-1.edg.xml"/>
        <connection-files value="./converted_scenarios/scenario-factory/ESP_Ceuta-7_1_I-1-1/ESP_Ceuta-7_1_I-1-1.con.xml"/>
        <tllogic-files value="./converted_scenarios/scenario-factory/ESP_Ceuta-7_1_I-1-1/ESP_Ceuta-7_1_I-1-1.tll.xml"/>
        <type-files value="/home/zen/commonroad-interactive-benchmarks/install/commonroad-map-tool/crmapconverter/sumo_map/templates/DEU.typ.xml"/>
    </input>

    <output>
        <output-file value="./converted_scenarios/scenario-factory/ESP_Ceuta-7_1_I-1-1/ESP_Ceuta-7_1_I-1-1.net.xml"/>
    </output>

    <processing>
        <geometry.remove.keep-edges.explicit value="true"/>
        <geometry.avoid-overlap value="true"/>
        <offset.disable-normalization value="true"/>
    </processing>

    <junctions>
        <no-turnarounds value="true"/>
        <junctions.internal-link-detail value="20"/>
    </junctions>

    <report>
        <aggregate-warnings value="5"/>
    </report>

    <random_number>
        <seed value="1234"/>
    </random_number>

</configuration>
--><net xmlns:xsi="http://www.w3.org/2001/XMLSchema-instance" version="1.6" junctionCornerDetail="5" junctionLinkDetail="20" limitTurnSpeed="5.50" xsi:noNamespaceSchemaLocation="http://sumo.dlr.de/xsd/net_file.xsd">

    <location netOffset="0.00,0.00" convBoundary="-999.61,926.58,-955.02,1031.37" origBoundary="-999.61,926.58,-948.05,1033.48" projParameter="!"/>

    <type id="highway.bridleway" priority="1" speed="2.78" allow="pedestrian" oneway="1" width="2.00"/>
    <type id="highway.bus_guideway" priority="1" speed="27.78" allow="bus" oneway="1"/>
    <type id="highway.cycleway" priority="1" speed="8.33" allow="bicycle" oneway="0" width="1.00"/>
    <type id="highway.footway" priority="1" speed="2.78" allow="pedestrian" oneway="1" width="2.00"/>
    <type id="highway.ford" priority="1" speed="2.78" allow="army" oneway="0"/>
    <type id="highway.living_street" priority="2" speed="2.78" disallow="tram rail_urban rail rail_electric rail_fast ship" oneway="0"/>
    <type id="highway.motorway" priority="14" speed="39.44" allow="private emergency authority army vip passenger hov taxi bus coach delivery truck trailer motorcycle evehicle custom1 custom2" oneway="1"/>
    <type id="highway.motorway_link" priority="9" speed="22.22" allow="private emergency authority army vip passenger hov taxi bus coach delivery truck trailer motorcycle evehicle custom1 custom2" oneway="1"/>
    <type id="highway.path" priority="1" speed="2.78" allow="pedestrian bicycle" oneway="0" width="2.00"/>
    <type id="highway.pedestrian" priority="1" speed="2.78" allow="pedestrian" oneway="1" width="2.00"/>
    <type id="highway.primary" priority="12" speed="27.78" disallow="pedestrian tram rail_urban rail rail_electric rail_fast ship" oneway="0"/>
    <type id="highway.primary_link" priority="7" speed="22.22" disallow="pedestrian tram rail_urban rail rail_electric rail_fast ship" oneway="0"/>
    <type id="highway.raceway" priority="15" speed="83.33" allow="vip" oneway="0"/>
    <type id="highway.residential" priority="3" speed="13.89" disallow="pedestrian tram rail_urban rail rail_electric rail_fast ship" oneway="0"/>
    <type id="highway.secondary" priority="11" speed="27.78" disallow="pedestrian tram rail_urban rail rail_electric rail_fast ship" oneway="0"/>
    <type id="highway.secondary_link" priority="6" speed="22.22" disallow="pedestrian tram rail_urban rail rail_electric rail_fast ship" oneway="0"/>
    <type id="highway.service" priority="1" speed="5.56" allow="pedestrian delivery bicycle" oneway="0"/>
    <type id="highway.stairs" priority="1" speed="1.39" allow="pedestrian" oneway="1" width="2.00"/>
    <type id="highway.step" priority="1" speed="1.39" allow="pedestrian" oneway="1" width="2.00"/>
    <type id="highway.steps" priority="1" speed="1.39" allow="pedestrian" oneway="1" width="2.00"/>
    <type id="highway.tertiary" priority="10" speed="22.22" disallow="pedestrian tram rail_urban rail rail_electric rail_fast ship" oneway="0"/>
    <type id="highway.tertiary_link" priority="5" speed="22.22" disallow="pedestrian tram rail_urban rail rail_electric rail_fast ship" oneway="0"/>
    <type id="highway.track" priority="1" speed="5.56" allow="pedestrian motorcycle moped bicycle" oneway="0"/>
    <type id="highway.trunk" priority="13" speed="27.78" disallow="pedestrian bicycle tram rail_urban rail rail_electric rail_fast ship" oneway="0"/>
    <type id="highway.trunk_link" priority="8" speed="22.22" disallow="pedestrian bicycle tram rail_urban rail rail_electric rail_fast ship" oneway="0"/>
    <type id="highway.unclassified" priority="4" speed="13.89" disallow="pedestrian tram rail_urban rail rail_electric rail_fast ship" oneway="0"/>
    <type id="highway.unsurfaced" priority="1" speed="8.33" disallow="tram rail_urban rail rail_electric rail_fast ship" oneway="0"/>
    <type id="railway.highspeed" priority="21" speed="69.44" allow="rail_fast" oneway="1"/>
    <type id="railway.light_rail" priority="19" speed="27.78" allow="rail_urban" oneway="1"/>
    <type id="railway.preserved" priority="16" speed="27.78" allow="rail" oneway="1"/>
    <type id="railway.rail" priority="20" speed="44.44" allow="rail" oneway="1"/>
    <type id="railway.subway" priority="18" speed="27.78" allow="rail_urban" oneway="1"/>
    <type id="railway.tram" priority="17" speed="13.89" allow="tram" oneway="1"/>

    <edge id=":11_0" function="internal">
        <lane id=":11_0_0" index="0" disallow="pedestrian tram rail_urban rail rail_electric rail_fast ship" speed="36.11" length="2.97" width="3.50" shape="-955.04,971.75 -955.05,968.78"/>
    </edge>
    <edge id=":11_1" function="internal">
        <lane id=":11_1_0" index="0" disallow="pedestrian tram rail_urban rail rail_electric rail_fast ship" speed="36.11" length="2.97" width="3.50" shape="-955.03,971.75 -955.05,968.78"/>
    </edge>
    <edge id=":11_2" function="internal">
        <lane id=":11_2_0" index="0" disallow="pedestrian tram rail_urban rail rail_electric rail_fast ship" speed="36.11" length="2.97" width="3.50" shape="-955.01,971.75 -955.05,968.78"/>
    </edge>
    <edge id=":9_0" function="internal">
        <lane id=":9_0_0" index="0" disallow="pedestrian tram rail_urban rail rail_electric rail_fast ship" speed="10.41" length="24.13" width="3.50" shape="-961.51,947.71 -962.71,946.90 -964.83,945.90 -967.06,945.21 -969.95,944.73 -972.87,944.58 -960.73,943.97"/>
    </edge>
    <edge id=":9_1" function="internal">
        <lane id=":9_1_0" index="0" disallow="pedestrian tram rail_urban rail rail_electric rail_fast ship" speed="36.11" length="7.28" width="3.50" shape="-956.39,947.33 -957.44,940.13"/>
    </edge>

    <edge id="69017" from="9" to="5" priority="3" type="highway.residential" spreadType="center" length="38.92">
        <lane id="69017_0" index="0" disallow="pedestrian tram rail_urban rail rail_electric rail_fast ship" speed="36.11" length="38.92" width="3.50" customShape="1" shape="-960.73,943.97 -987.12,945.19 -999.61,945.77"/>
    </edge>
    <edge id="69085" from="11" to="9" priority="3" type="highway.residential" spreadType="center" length="21.50">
        <lane id="69085_0" index="0" disallow="pedestrian tram rail_urban rail rail_electric rail_fast ship" speed="36.11" length="21.50" width="3.50" customShape="1" shape="-955.05,968.78 -955.17,963.90 -956.39,947.33"/>
    </edge>
    <edge id="70429" from="9" to="10" priority="3" type="highway.residential" spreadType="center" length="13.68">
        <lane id="70429_0" index="0" disallow="pedestrian tram rail_urban rail rail_electric rail_fast ship" speed="36.11" length="13.68" width="3.50" customShape="1" shape="-957.44,940.13 -958.56,931.07 -959.30,926.58"/>
    </edge>
    <edge id="70441" from="12" to="11" priority="3" type="highway.residential" spreadType="center" length="60.97">
        <lane id="70441_0" index="0" disallow="pedestrian tram rail_urban rail rail_electric rail_fast ship" speed="36.11" length="60.97" width="3.50" customShape="1" shape="-948.62,1032.09 -949.40,1030.19 -950.59,1026.31 -951.82,1020.86 -952.86,1014.34 -953.76,1006.26 -954.47,996.12 -954.90,983.94 -955.01,971.75"/>
    </edge>
    <edge id="70472" from="12" to="11" priority="3" type="highway.residential" spreadType="center" length="62.75">
        <lane id="70472_0" index="0" disallow="pedestrian tram rail_urban rail rail_electric rail_fast ship" speed="36.11" length="62.75" width="3.50" customShape="1" shape="-971.43,1030.63 -970.33,1029.69 -968.20,1027.41 -966.03,1024.50 -964.15,1021.39 -962.33,1017.65 -960.64,1013.30 -959.13,1008.33 -957.83,1002.77 -956.69,996.12 -955.84,988.90 -955.27,980.61 -955.04,971.75"/>
    </edge>
    <edge id="70475" from="12" to="11" priority="3" type="highway.residential" spreadType="center" length="61.06">
        <lane id="70475_0" index="0" disallow="pedestrian tram rail_urban rail rail_electric rail_fast ship" speed="36.11" length="61.06" width="3.50" customShape="1" shape="-973.67,1027.96 -972.01,1026.57 -969.47,1023.96 -967.19,1021.11 -964.90,1017.63 -962.93,1013.96 -961.06,1009.66 -959.37,1004.74 -958.02,999.71 -956.89,994.09 -955.94,987.38 -955.32,980.12 -955.04,972.31 -955.03,971.75"/>
    </edge>

    <junction id="10" type="dead_end" x="-959.30" y="926.58" incLanes="70429_0" intLanes="" shape="-961.02,926.86 -957.57,926.30"/>
    <junction id="11" type="priority" x="-955.02" y="970.23" incLanes="70472_0 70475_0 70441_0" intLanes=":11_0_0 :11_1_0 :11_2_0" shape="-953.31,968.74 -956.80,968.83 -956.79,971.77 -953.26,971.74">
        <request index="0" response="000" foes="110" cont="0"/>
        <request index="1" response="001" foes="101" cont="0"/>
        <request index="2" response="011" foes="011" cont="0"/>
    </junction>
    <junction id="12" type="dead_end" x="-965.18" y="1031.37" incLanes="" intLanes="" shape="-970.30,1031.97 -974.79,1026.62 -947.01,1031.43 -950.24,1032.76"/>
    <junction id="5" type="dead_end" x="-999.61" y="945.77" incLanes="69017_0" intLanes="" shape="-999.53,947.52 -999.70,944.02" rightOfWay="edgePriority"/>
    <junction id="9" type="priority" x="-965.04" y="952.42" incLanes="69085_0" intLanes=":9_0_0 :9_1_0" shape="-958.13,947.46 -954.64,947.20 -955.70,939.96 -959.18,940.30 -959.26,941.33 -959.48,941.70 -959.81,941.97 -960.25,942.15 -960.81,942.22 -960.65,945.72 -959.31,945.86 -958.83,946.10 -958.47,946.44 -958.24,946.90">
        <request index="0" response="00" foes="00" cont="0"/>
        <request index="1" response="00" foes="00" cont="0"/>
    </junction>

    <connection from="69085" to="69017" fromLane="0" toLane="0" contPos="-4.00" shape="-955.44,960.22 -955.85,957.33 -956.62,954.50 -957.54,952.35 -958.79,950.37 -959.94,949.04 -961.25,947.88 -962.71,946.90 -964.83,945.90 -967.06,945.21 -969.95,944.73 -972.87,944.58 -974.63,944.61" via=":9_0_0" dir="r" state="M"/>
    <connection from="69085" to="70429" fromLane="0" toLane="0" contPos="-4.00" via=":9_1_0" dir="s" state="M"/>
    <connection from="70441" to="69085" fromLane="0" toLane="0" contPos="-4.00" via=":11_2_0" dir="s" state="m"/>
    <connection from="70472" to="69085" fromLane="0" toLane="0" contPos="-4.00" via=":11_0_0" dir="s" state="M"/>
    <connection from="70475" to="69085" fromLane="0" toLane="0" contPos="-4.00" via=":11_1_0" dir="s" state="m"/>

    <connection from=":11_0" to="69085" fromLane="0" toLane="0" dir="s" state="M"/>
    <connection from=":11_1" to="69085" fromLane="0" toLane="0" dir="s" state="M"/>
    <connection from=":11_2" to="69085" fromLane="0" toLane="0" dir="s" state="M"/>
    <connection from=":9_0" to="69017" fromLane="0" toLane="0" dir="r" state="M"/>
    <connection from=":9_1" to="70429" fromLane="0" toLane="0" dir="s" state="M"/>

</net>