<routes>
	<vehicle depart="0.1" departLane="0" departPos="4.052424636901247" departSpeed="4.2939933" id="314" type="bicycle">
		<route edges="69085 70429"/>
	</vehicle>
	<vehicle depart="0.1" departLane="0" departPos="41.112234374205464" departSpeed="5.8404428" id="316" type="bicycle">
		<route edges="70441 69085 69017"/>
	</vehicle>
	<vehicle depart="0.1" departLane="0" departPos="8.258987208048477" departSpeed="4.5509768" id="317" type="passenger">
		<route edges="70441 69085"/>
	</vehicle>
</routes>
