<routes>
	<vehicle depart="0.1" departLane="0" departPos="13.718650794962969" departSpeed="1.5312239" id="357" type="bus">
		<route edges="94695 94698"/>
	</vehicle>
	<vehicle depart="0.1" departLane="0" departPos="13.945346220029068" departSpeed="7.5340322" id="33" type="passenger">
		<route edges="94697 94694"/>
	</vehicle>
	<vehicle depart="0.1" departLane="0" departPos="9.528803856721769" departSpeed="11.759465" id="36" type="passenger">
		<route edges=":44_1 94845 94802"/>
	</vehicle>
	<vehicle depart="0.1" departLane="0" departPos="28.328847722323065" departSpeed="7.7661998" id="314" type="passenger">
		<route edges=":44_2 94697 94694"/>
	</vehicle>
	<vehicle depart="0.1" departLane="0" departPos="11.526412126434868" departSpeed="7.0320876" id="328" type="passenger">
		<route edges="94698 94845"/>
	</vehicle>
	<vehicle depart="0.1" departLane="0" departPos="23.608422402586005" departSpeed="2.7006507" id="335" type="passenger">
		<route edges="94662 94698"/>
	</vehicle>
	<vehicle depart="0.1" departLane="0" departPos="14.563776541324325" departSpeed="1.681219" id="341" type="passenger">
		<route edges="94662 94698"/>
	</vehicle>
	<vehicle depart="0.1" departLane="0" departPos="27.325341578030635" departSpeed="9.1872859" id="350" type="passenger">
		<route edges=":46_1 94698 94701"/>
	</vehicle>
	<vehicle depart="0.1" departLane="0" departPos="4.720818794008224" departSpeed="0.1865157" id="354" type="passenger">
		<route edges=":46_1 94698"/>
	</vehicle>
	<vehicle depart="0.1" departLane="0" departPos="4.7559093950238065" departSpeed="3.8889669" id="333" type="motorcycle">
		<route edges=":46_0 94698"/>
	</vehicle>
</routes>
