<!-- generated on Wed Feb 10 12:32:35 2021 by Eclipse SUMO netconvert Version 1.8.0
<configuration xmlns:xsi="http://www.w3.org/2001/XMLSchema-instance" xsi:noNamespaceSchemaLocation="http://sumo.dlr.de/xsd/netconvertConfiguration.xsd">

    <input>
        <node-files value="./converted_scenarios/SUMO/DEU_Lohmar-15_1_I-1-1/DEU_Lohmar-15_1_I-1-1.nod.xml"/>
        <edge-files value="./converted_scenarios/SUMO/DEU_Lohmar-15_1_I-1-1/DEU_Lohmar-15_1_I-1-1.edg.xml"/>
        <connection-files value="./converted_scenarios/SUMO/DEU_Lohmar-15_1_I-1-1/DEU_Lohmar-15_1_I-1-1.con.xml"/>
        <tllogic-files value="./converted_scenarios/SUMO/DEU_Lohmar-15_1_I-1-1/DEU_Lohmar-15_1_I-1-1.tll.xml"/>
        <type-files value="/home/zen/commonroad-interactive-benchmarks/install/commonroad-map-tool/crmapconverter/sumo_map/templates/DEU.typ.xml"/>
    </input>

    <output>
        <output-file value="./converted_scenarios/SUMO/DEU_Lohmar-15_1_I-1-1/DEU_Lohmar-15_1_I-1-1.net.xml"/>
    </output>

    <processing>
        <geometry.remove.keep-edges.explicit value="true"/>
        <geometry.avoid-overlap value="true"/>
        <offset.disable-normalization value="true"/>
    </processing>

    <junctions>
        <no-turnarounds value="true"/>
        <junctions.internal-link-detail value="20"/>
    </junctions>

    <report>
        <aggregate-warnings value="5"/>
    </report>

    <random_number>
        <seed value="1234"/>
    </random_number>

</configuration>
--><net xmlns:xsi="http://www.w3.org/2001/XMLSchema-instance" version="1.6" junctionCornerDetail="5" junctionLinkDetail="20" limitTurnSpeed="5.50" xsi:noNamespaceSchemaLocation="http://sumo.dlr.de/xsd/net_file.xsd">

    <location netOffset="0.00,0.00" convBoundary="118.62,52.35,301.72,248.89" origBoundary="118.62,52.35,301.72,248.89" projParameter="!"/>

    <type id="highway.bridleway" priority="1" speed="2.78" allow="pedestrian" oneway="1" width="2.00"/>
    <type id="highway.bus_guideway" priority="1" speed="27.78" allow="bus" oneway="1"/>
    <type id="highway.cycleway" priority="1" speed="8.33" allow="bicycle" oneway="0" width="1.00"/>
    <type id="highway.footway" priority="1" speed="2.78" allow="pedestrian" oneway="1" width="2.00"/>
    <type id="highway.ford" priority="1" speed="2.78" allow="army" oneway="0"/>
    <type id="highway.living_street" priority="2" speed="2.78" disallow="tram rail_urban rail rail_electric rail_fast ship" oneway="0"/>
    <type id="highway.motorway" priority="14" speed="39.44" allow="private emergency authority army vip passenger hov taxi bus coach delivery truck trailer motorcycle evehicle custom1 custom2" oneway="1"/>
    <type id="highway.motorway_link" priority="9" speed="22.22" allow="private emergency authority army vip passenger hov taxi bus coach delivery truck trailer motorcycle evehicle custom1 custom2" oneway="1"/>
    <type id="highway.path" priority="1" speed="2.78" allow="pedestrian bicycle" oneway="0" width="2.00"/>
    <type id="highway.pedestrian" priority="1" speed="2.78" allow="pedestrian" oneway="1" width="2.00"/>
    <type id="highway.primary" priority="12" speed="27.78" disallow="pedestrian tram rail_urban rail rail_electric rail_fast ship" oneway="0"/>
    <type id="highway.primary_link" priority="7" speed="22.22" disallow="pedestrian tram rail_urban rail rail_electric rail_fast ship" oneway="0"/>
    <type id="highway.raceway" priority="15" speed="83.33" allow="vip" oneway="0"/>
    <type id="highway.residential" priority="3" speed="13.89" disallow="pedestrian tram rail_urban rail rail_electric rail_fast ship" oneway="0"/>
    <type id="highway.secondary" priority="11" speed="27.78" disallow="pedestrian tram rail_urban rail rail_electric rail_fast ship" oneway="0"/>
    <type id="highway.secondary_link" priority="6" speed="22.22" disallow="pedestrian tram rail_urban rail rail_electric rail_fast ship" oneway="0"/>
    <type id="highway.service" priority="1" speed="5.56" allow="pedestrian delivery bicycle" oneway="0"/>
    <type id="highway.stairs" priority="1" speed="1.39" allow="pedestrian" oneway="1" width="2.00"/>
    <type id="highway.step" priority="1" speed="1.39" allow="pedestrian" oneway="1" width="2.00"/>
    <type id="highway.steps" priority="1" speed="1.39" allow="pedestrian" oneway="1" width="2.00"/>
    <type id="highway.tertiary" priority="10" speed="22.22" disallow="pedestrian tram rail_urban rail rail_electric rail_fast ship" oneway="0"/>
    <type id="highway.tertiary_link" priority="5" speed="22.22" disallow="pedestrian tram rail_urban rail rail_electric rail_fast ship" oneway="0"/>
    <type id="highway.track" priority="1" speed="5.56" allow="pedestrian motorcycle moped bicycle" oneway="0"/>
    <type id="highway.trunk" priority="13" speed="27.78" disallow="pedestrian bicycle tram rail_urban rail rail_electric rail_fast ship" oneway="0"/>
    <type id="highway.trunk_link" priority="8" speed="22.22" disallow="pedestrian bicycle tram rail_urban rail rail_electric rail_fast ship" oneway="0"/>
    <type id="highway.unclassified" priority="4" speed="13.89" disallow="pedestrian tram rail_urban rail rail_electric rail_fast ship" oneway="0"/>
    <type id="highway.unsurfaced" priority="1" speed="8.33" disallow="tram rail_urban rail rail_electric rail_fast ship" oneway="0"/>
    <type id="railway.highspeed" priority="21" speed="69.44" allow="rail_fast" oneway="1"/>
    <type id="railway.light_rail" priority="19" speed="27.78" allow="rail_urban" oneway="1"/>
    <type id="railway.preserved" priority="16" speed="27.78" allow="rail" oneway="1"/>
    <type id="railway.rail" priority="20" speed="44.44" allow="rail" oneway="1"/>
    <type id="railway.subway" priority="18" speed="27.78" allow="rail_urban" oneway="1"/>
    <type id="railway.tram" priority="17" speed="13.89" allow="tram" oneway="1"/>

    <edge id=":33_0" function="internal">
        <lane id=":33_0_0" index="0" disallow="pedestrian tram rail_urban rail rail_electric rail_fast ship" speed="36.11" length="18.97" width="3.50" shape="194.73,157.27 193.46,154.34 192.07,149.96 190.45,144.59 189.29,141.76 188.07,139.56"/>
    </edge>
    <edge id=":33_1" function="internal">
        <lane id=":33_1_0" index="0" disallow="pedestrian tram rail_urban rail rail_electric rail_fast ship" speed="10.24" length="19.46" width="3.49" shape="194.73,157.27 193.93,155.38 193.45,153.53 193.30,151.63 193.49,149.72 194.01,147.89 194.83,146.16 195.86,144.55 197.49,142.59 199.96,140.26"/>
    </edge>
    <edge id=":33_2" function="internal">
        <lane id=":33_2_0" index="0" disallow="pedestrian tram rail_urban rail rail_electric rail_fast ship" speed="8.99" length="14.78" width="3.49" shape="202.27,142.88 200.15,144.88 198.83,146.43 198.03,147.65 197.40,148.93 197.00,150.24 196.83,151.58 196.92,152.93 197.25,154.26 197.83,155.64"/>
    </edge>
    <edge id=":33_3" function="internal">
        <lane id=":33_3_0" index="0" disallow="pedestrian tram rail_urban rail rail_electric rail_fast ship" speed="8.50" length="17.39" width="3.50" shape="202.27,142.88 199.83,144.72 198.33,145.36 196.71,145.64 195.77,145.61 194.22,145.26 193.40,144.91 192.14,144.14 191.00,143.19 189.59,141.67 188.07,139.56"/>
    </edge>
    <edge id=":33_4" function="internal">
        <lane id=":33_4_0" index="0" disallow="pedestrian tram rail_urban rail rail_electric rail_fast ship" speed="6.99" length="11.37" width="3.49" shape="190.93,137.55 191.31,138.12 191.62,138.56 191.95,139.00 192.30,139.43 192.66,139.84 193.04,140.23 193.45,140.60 193.87,140.95 194.32,141.26 194.79,141.53 195.29,141.75 195.81,141.91 196.34,141.99 196.89,141.99 197.43,141.90 197.95,141.72 198.44,141.46 198.90,141.15 199.96,140.26"/>
    </edge>
    <edge id=":33_5" function="internal">
        <lane id=":33_5_0" index="0" disallow="pedestrian tram rail_urban rail rail_electric rail_fast ship" speed="36.11" length="19.42" width="3.49" shape="190.93,137.55 192.34,140.07 193.60,143.09 195.27,148.59 196.64,152.91 197.83,155.64"/>
    </edge>
    <edge id=":34_0" function="internal">
        <lane id=":34_0_0" index="0" disallow="pedestrian tram rail_urban rail rail_electric rail_fast ship" speed="7.87" length="12.38" width="3.50" shape="164.73,113.77 163.65,112.82 162.48,112.00 161.19,111.38 160.28,111.11 159.34,110.97 158.39,110.98 157.45,111.13 156.10,111.59 154.84,112.27 153.68,113.10"/>
    </edge>
    <edge id=":34_1" function="internal">
        <lane id=":34_1_0" index="0" disallow="pedestrian tram rail_urban rail rail_electric rail_fast ship" speed="36.11" length="18.00" width="3.50" shape="164.73,113.77 157.24,106.63 151.48,101.60"/>
    </edge>
    <edge id=":34_2" function="internal">
        <lane id=":34_2_0" index="0" disallow="pedestrian tram rail_urban rail rail_electric rail_fast ship" speed="8.66" length="17.16" width="3.50" shape="164.73,113.77 163.28,112.17 162.06,110.41 161.43,109.13 161.00,107.77 160.83,106.35 160.93,104.93 161.31,103.55 161.91,102.25 163.12,100.49 164.58,98.91"/>
    </edge>
    <edge id=":34_3" function="internal">
        <lane id=":34_3_0" index="0" disallow="pedestrian tram rail_urban rail rail_electric rail_fast ship" speed="7.18" length="11.44" width="3.50" shape="166.99,101.45 165.94,102.58 165.09,103.81 164.72,104.63 164.49,105.46 164.44,106.31 164.55,107.17 164.83,108.02 165.24,108.85 166.12,110.11 167.17,111.27"/>
    </edge>
    <edge id=":34_4" function="internal">
        <lane id=":34_4_0" index="0" disallow="pedestrian tram rail_urban rail rail_electric rail_fast ship" speed="36.11" length="17.69" width="3.50" shape="166.99,101.45 160.45,107.41 153.68,113.10"/>
    </edge>
    <edge id=":34_5" function="internal">
        <lane id=":34_5_0" index="0" disallow="pedestrian tram rail_urban rail rail_electric rail_fast ship" speed="9.20" length="17.27" width="3.50" shape="167.00,101.45 165.51,102.69 163.84,103.74 161.98,104.49 160.56,104.79 158.53,104.83 157.12,104.60 155.24,103.97 153.51,103.06 151.48,101.60"/>
    </edge>
    <edge id=":34_6" function="internal">
        <lane id=":34_6_0" index="0" disallow="pedestrian tram rail_urban rail rail_electric rail_fast ship" speed="7.81" length="12.14" width="3.50" shape="153.71,98.90 155.22,99.99 156.46,100.65 157.78,101.11 158.70,101.27 160.10,101.26 161.02,101.08 162.32,100.56 163.50,99.82 164.58,98.91"/>
    </edge>
    <edge id=":34_7" function="internal">
        <lane id=":34_7_0" index="0" disallow="pedestrian tram rail_urban rail rail_electric rail_fast ship" speed="36.11" length="18.29" width="3.50" shape="153.71,98.90 159.60,104.05 167.17,111.27"/>
    </edge>
    <edge id=":34_8" function="internal">
        <lane id=":34_8_0" index="0" disallow="pedestrian tram rail_urban rail rail_electric rail_fast ship" speed="8.21" length="17.17" width="3.50" shape="153.71,98.90 155.42,100.50 156.42,101.69 157.26,103.02 157.82,104.47 157.97,105.24 158.03,106.01 157.98,106.79 157.58,108.30 156.86,109.69 155.93,110.94 154.28,112.60 153.68,113.10"/>
    </edge>
    <edge id=":34_9" function="internal">
        <lane id=":34_9_0" index="0" disallow="pedestrian tram rail_urban rail rail_electric rail_fast ship" speed="6.65" length="10.81" width="3.50" shape="151.48,110.38 151.92,110.01 152.34,109.63 152.74,109.22 153.12,108.80 153.47,108.35 153.78,107.88 154.05,107.37 154.24,106.84 154.34,106.28 154.33,105.71 154.22,105.15 154.02,104.62 153.77,104.11 153.45,103.64 153.10,103.19 152.73,102.76 152.33,102.36 151.91,101.97 151.48,101.60"/>
    </edge>
    <edge id=":34_10" function="internal">
        <lane id=":34_10_0" index="0" disallow="pedestrian tram rail_urban rail rail_electric rail_fast ship" speed="36.11" length="17.42" width="3.50" shape="151.48,110.38 158.15,104.78 164.58,98.91"/>
    </edge>
    <edge id=":34_11" function="internal">
        <lane id=":34_11_0" index="0" disallow="pedestrian tram rail_urban rail rail_electric rail_fast ship" speed="9.25" length="17.52" width="3.50" shape="151.48,110.38 153.06,109.25 154.80,108.31 156.72,107.66 158.12,107.42 159.54,107.41 160.95,107.61 162.30,108.01 164.11,108.88 165.74,110.00 167.17,111.27"/>
    </edge>
    <edge id=":35_0" function="internal">
        <lane id=":35_0_0" index="0" disallow="pedestrian tram rail_urban rail rail_electric rail_fast ship" speed="24.23" length="14.77" width="3.50" shape="236.46,202.11 232.77,203.41 229.62,204.84 226.60,206.53 223.74,208.47 223.36,208.76"/>
    </edge>
    <edge id=":35_1" function="internal">
        <lane id=":35_1_0" index="0" disallow="pedestrian tram rail_urban rail rail_electric rail_fast ship" speed="9.93" length="15.76" width="3.50" shape="236.46,202.11 234.69,202.53 232.80,202.73 230.88,202.63 228.98,202.22 227.18,201.48 225.55,200.49 224.10,199.28 222.45,197.49"/>
    </edge>
    <edge id=":35_2" function="internal">
        <lane id=":35_2_0" index="0" disallow="pedestrian tram rail_urban rail rail_electric rail_fast ship" speed="8.59" length="11.60" width="3.50" shape="225.18,195.31 226.44,196.67 227.51,197.57 228.70,198.30 229.99,198.84 231.35,199.14 232.74,199.22 234.13,199.07 235.46,198.76"/>
    </edge>
    <edge id=":35_3" function="internal">
        <lane id=":35_3_0" index="0" disallow="pedestrian tram rail_urban rail rail_electric rail_fast ship" speed="8.44" length="15.62" width="3.50" shape="225.18,195.31 226.40,197.06 227.31,198.98 227.67,200.36 227.76,201.78 227.56,203.18 227.06,204.52 226.34,205.74 224.96,207.37 223.36,208.76"/>
    </edge>
    <edge id=":35_4" function="internal">
        <lane id=":35_4_0" index="0" disallow="pedestrian tram rail_urban rail rail_electric rail_fast ship" speed="6.91" length="10.09" width="3.50" shape="221.14,206.06 222.36,205.00 223.31,203.89 223.75,203.16 224.04,202.38 224.16,201.59 224.12,200.80 223.91,199.99 223.30,198.70 222.45,197.49"/>
    </edge>
    <edge id=":35_5" function="internal">
        <lane id=":35_5_0" index="0" disallow="pedestrian tram rail_urban rail rail_electric rail_fast ship" speed="25.32" length="16.16" width="3.50" shape="221.13,206.05 221.67,205.65 224.75,203.55 228.03,201.72 231.45,200.17 235.46,198.76"/>
    </edge>

    <edge id="177" from="33" to="35" priority="3" type="highway.residential" spreadType="center" length="48.32" shape="196.93,144.85 228.89,200.58">
        <lane id="177_0" index="0" disallow="pedestrian tram rail_urban rail rail_electric rail_fast ship" speed="36.11" length="48.32" width="3.49" customShape="1" shape="197.83,155.64 201.76,163.13 205.08,168.70 208.69,174.05 214.32,181.64 225.19,195.32"/>
    </edge>
    <edge id="178" from="35" to="33" priority="3" type="highway.residential" spreadType="center" length="48.97" shape="225.85,202.32 193.90,146.59">
        <lane id="178_0" index="0" disallow="pedestrian tram rail_urban rail rail_electric rail_fast ship" speed="36.11" length="48.97" width="3.50" customShape="1" shape="222.45,197.49 211.54,183.77 205.83,176.07 202.13,170.57 198.71,164.84 194.73,157.27"/>
    </edge>
    <edge id="180" from="34" to="33" priority="3" type="highway.residential" spreadType="center" length="35.50" shape="160.48,104.95 196.71,144.54">
        <lane id="180_0" index="0" disallow="pedestrian tram rail_urban rail rail_electric rail_fast ship" speed="36.11" length="35.50" width="3.50" customShape="1" shape="167.17,111.27 172.55,116.53 179.67,123.69 184.43,128.98 188.26,133.75 190.93,137.55"/>
    </edge>
    <edge id="181" from="33" to="34" priority="3" type="highway.residential" spreadType="center" length="34.87" shape="194.13,146.90 157.90,107.31">
        <lane id="181_0" index="0" disallow="pedestrian tram rail_urban rail rail_electric rail_fast ship" speed="36.11" length="34.87" width="3.50" customShape="1" shape="188.07,139.56 185.47,135.86 181.77,131.25 177.13,126.10 170.10,119.02 164.72,113.76"/>
    </edge>
    <edge id="183" from="27" to="34" priority="3" type="highway.residential" spreadType="center" length="18.77" shape="139.25,86.96 160.44,104.91">
        <lane id="183_0" index="0" disallow="pedestrian tram rail_urban rail rail_electric rail_fast ship" speed="36.11" length="18.77" width="3.50" customShape="1" shape="139.25,86.96 146.49,92.94 153.72,98.91"/>
    </edge>
    <edge id="184" from="34" to="26" priority="3" type="highway.residential" spreadType="center" length="18.73" shape="158.19,107.58 137.04,89.67">
        <lane id="184_0" index="0" disallow="pedestrian tram rail_urban rail rail_electric rail_fast ship" speed="36.11" length="18.73" width="3.50" customShape="1" shape="151.48,101.60 144.26,95.64 137.04,89.67"/>
    </edge>
    <edge id="201" from="30" to="33" priority="3" type="highway.residential" spreadType="center" length="65.30" shape="250.98,99.39 196.54,147.06">
        <lane id="201_0" index="0" disallow="pedestrian tram rail_urban rail rail_electric rail_fast ship" speed="36.11" length="65.30" width="3.50" customShape="1" shape="250.98,99.39 249.03,101.19 232.94,115.84 202.27,142.88"/>
    </edge>
    <edge id="202" from="33" to="11" priority="3" type="highway.residential" spreadType="center" length="65.24" shape="194.24,144.43 248.62,96.81">
        <lane id="202_0" index="0" disallow="pedestrian tram rail_urban rail rail_electric rail_fast ship" speed="36.11" length="65.24" width="3.49" customShape="1" shape="199.96,140.26 230.60,113.23 246.66,98.61 248.62,96.81"/>
    </edge>
    <edge id="204" from="35" to="3" priority="3" type="highway.residential" spreadType="center" length="70.00" shape="226.73,199.77 300.70,173.93">
        <lane id="204_0" index="0" disallow="pedestrian tram rail_urban rail rail_electric rail_fast ship" speed="36.11" length="70.00" width="3.50" customShape="1" shape="235.46,198.76 251.87,193.92 263.81,190.21 272.75,187.08 280.17,184.14 286.48,181.24 300.70,173.93"/>
    </edge>
    <edge id="205" from="29" to="35" priority="3" type="highway.residential" spreadType="center" length="70.01" shape="301.72,177.34 227.89,203.07">
        <lane id="205_0" index="0" disallow="pedestrian tram rail_urban rail rail_electric rail_fast ship" speed="36.11" length="70.01" width="3.50" customShape="1" shape="301.72,177.34 288.01,184.39 281.54,187.36 273.97,190.36 264.90,193.53 252.87,197.27 236.45,202.12"/>
    </edge>
    <edge id="207" from="32" to="35" priority="3" type="highway.residential" spreadType="center" length="70.00" shape="165.03,245.97 226.33,199.98">
        <lane id="207_0" index="0" disallow="pedestrian tram rail_urban rail rail_electric rail_fast ship" speed="36.11" length="70.00" width="3.50" customShape="1" shape="165.03,245.97 166.92,245.30 174.01,242.72 180.45,239.92 186.26,237.15 190.08,234.97 193.29,232.75 196.72,229.98 200.69,226.29 206.20,220.54 213.15,213.18 217.61,208.96 221.19,206.01"/>
    </edge>
    <edge id="208" from="35" to="6" priority="3" type="highway.residential" spreadType="center" length="70.00" shape="228.43,202.78 167.28,248.89">
        <lane id="208_0" index="0" disallow="pedestrian tram rail_urban rail rail_electric rail_fast ship" speed="36.11" length="70.00" width="3.50" customShape="1" shape="223.36,208.76 219.93,211.57 215.63,215.65 208.75,222.94 203.14,228.79 199.00,232.63 195.38,235.55 191.93,237.93 187.88,240.25 181.89,243.11 175.30,245.97 168.09,248.60 167.28,248.89"/>
    </edge>
    <edge id="766" from="34" to="13" priority="3" type="highway.residential" spreadType="center" length="67.57" shape="158.00,104.93 213.55,52.35">
        <lane id="766_0" index="0" disallow="pedestrian tram rail_urban rail rail_electric rail_fast ship" speed="36.11" length="67.57" width="3.50" customShape="1" shape="164.58,98.91 189.07,75.62 213.55,52.35"/>
    </edge>
    <edge id="767" from="16" to="34" priority="3" type="highway.residential" spreadType="center" length="67.60" shape="215.98,54.87 160.40,107.47">
        <lane id="767_0" index="0" disallow="pedestrian tram rail_urban rail rail_electric rail_fast ship" speed="36.11" length="67.60" width="3.50" customShape="1" shape="215.98,54.87 191.49,78.16 166.99,101.45"/>
    </edge>
    <edge id="769" from="23" to="34" priority="3" type="highway.residential" spreadType="center" length="42.26" shape="118.62,136.95 158.17,104.78">
        <lane id="769_0" index="0" disallow="pedestrian tram rail_urban rail rail_electric rail_fast ship" speed="36.11" length="42.26" width="3.50" customShape="1" shape="118.62,136.95 135.06,123.65 151.48,110.38"/>
    </edge>
    <edge id="770" from="34" to="25" priority="3" type="highway.residential" spreadType="center" length="42.22" shape="160.38,107.49 120.85,139.65">
        <lane id="770_0" index="0" disallow="pedestrian tram rail_urban rail rail_electric rail_fast ship" speed="36.11" length="42.22" width="3.50" customShape="1" shape="153.68,113.10 137.26,126.37 120.85,139.65"/>
    </edge>

    <junction id="11" type="dead_end" x="248.62" y="96.81" incLanes="202_0" intLanes="" shape="247.44,95.53 249.80,98.10" rightOfWay="edgePriority"/>
    <junction id="13" type="dead_end" x="213.55" y="52.35" incLanes="766_0" intLanes="" shape="212.34,51.09 214.75,53.62" rightOfWay="edgePriority"/>
    <junction id="16" type="dead_end" x="215.98" y="54.87" incLanes="" intLanes="" shape="214.78,53.60 217.19,56.13" rightOfWay="edgePriority"/>
    <junction id="23" type="dead_end" x="118.62" y="136.95" incLanes="" intLanes="" shape="119.72,138.31 117.52,135.59" rightOfWay="edgePriority"/>
    <junction id="25" type="dead_end" x="120.85" y="139.65" incLanes="770_0" intLanes="" shape="121.95,141.01 119.75,138.29" rightOfWay="edgePriority"/>
    <junction id="26" type="dead_end" x="137.04" y="89.67" incLanes="184_0" intLanes="" shape="135.93,91.02 138.15,88.33" rightOfWay="edgePriority"/>
    <junction id="27" type="dead_end" x="139.25" y="86.96" incLanes="" intLanes="" shape="138.13,88.31 140.36,85.61" rightOfWay="edgePriority"/>
    <junction id="29" type="dead_end" x="301.72" y="177.34" incLanes="" intLanes="" shape="300.92,175.78 302.52,178.89" rightOfWay="edgePriority"/>
    <junction id="3" type="dead_end" x="300.70" y="173.93" incLanes="204_0" intLanes="" shape="299.90,172.37 301.50,175.49" rightOfWay="edgePriority"/>
    <junction id="30" type="dead_end" x="250.98" y="99.39" incLanes="" intLanes="" shape="249.80,98.10 252.17,100.68" rightOfWay="edgePriority"/>
    <junction id="32" type="dead_end" x="165.03" y="245.97" incLanes="" intLanes="" shape="165.61,247.62 164.45,244.32" rightOfWay="edgePriority"/>
    <junction id="33" type="priority" x="195.42" y="145.72" incLanes="178_0 201_0 180_0" intLanes=":33_0_0 :33_1_0 :33_2_0 :33_3_0 :33_4_0 :33_5_0" shape="193.19,158.08 199.38,154.83 198.70,151.50 199.12,149.76 200.05,147.96 201.49,146.10 203.43,144.19 198.81,138.95 196.79,139.83 195.73,139.64 194.64,139.03 193.51,138.00 192.36,136.54 186.64,140.57 188.69,143.94 189.76,146.67 190.30,149.09 190.75,151.56 191.57,154.44">
        <request index="0" response="000000" foes="001000" cont="0"/>
        <request index="1" response="110000" foes="111000" cont="0"/>
        <request index="2" response="100000" foes="100000" cont="0"/>
        <request index="3" response="100011" foes="100011" cont="0"/>
        <request index="4" response="000000" foes="000010" cont="0"/>
        <request index="5" response="000000" foes="001110" cont="0"/>
    </junction>
    <junction id="34" type="priority" x="159.23" y="106.17" incLanes="181_0 767_0 183_0 769_0" intLanes=":34_0_0 :34_1_0 :34_2_0 :34_3_0 :34_4_0 :34_5_0 :34_6_0 :34_7_0 :34_8_0 :34_9_0 :34_10_0 :34_11_0" shape="163.51,115.02 168.40,110.02 166.65,107.52 166.41,106.29 166.58,105.08 167.18,103.89 168.20,102.71 163.38,97.64 160.68,99.29 159.28,99.49 157.83,99.27 156.34,98.62 154.82,97.56 150.37,102.95 152.02,104.99 152.23,106.00 152.03,107.01 151.41,108.02 150.38,109.02 154.78,114.46 157.73,112.92 159.19,112.79 160.64,113.10 162.08,113.84">
        <request index="0" response="000000010000" foes="000100010000" cont="0"/>
        <request index="1" response="111000110000" foes="111100110000" cont="0"/>
        <request index="2" response="110011110000" foes="110011110000" cont="0"/>
        <request index="3" response="000000000000" foes="100010000000" cont="0"/>
        <request index="4" response="000000000000" foes="100110000111" cont="0"/>
        <request index="5" response="011000000000" foes="011110000110" cont="0"/>
        <request index="6" response="010000000000" foes="010000000100" cont="0"/>
        <request index="7" response="110000111000" foes="110000111100" cont="0"/>
        <request index="8" response="110000110011" foes="110000110011" cont="0"/>
        <request index="9" response="000000000000" foes="000000100010" cont="0"/>
        <request index="10" response="000000000000" foes="000111100110" cont="0"/>
        <request index="11" response="000000011000" foes="000110011110" cont="0"/>
    </junction>
    <junction id="35" type="priority" x="227.35" y="201.41" incLanes="205_0 177_0 207_0" intLanes=":35_0_0 :35_1_0 :35_2_0 :35_3_0 :35_4_0 :35_5_0" shape="236.94,203.79 234.96,197.08 231.82,197.42 230.37,197.10 229.02,196.47 227.74,195.51 226.55,194.23 221.08,198.58 222.09,200.67 222.08,201.70 221.73,202.71 221.05,203.72 220.02,204.70 224.47,210.11 226.80,208.24 228.61,206.94 230.22,206.03 231.93,205.32 234.07,204.64">
        <request index="0" response="000000" foes="001000" cont="0"/>
        <request index="1" response="110000" foes="111000" cont="0"/>
        <request index="2" response="100000" foes="100000" cont="0"/>
        <request index="3" response="100011" foes="100011" cont="0"/>
        <request index="4" response="000000" foes="000010" cont="0"/>
        <request index="5" response="000000" foes="001110" cont="0"/>
    </junction>
    <junction id="6" type="dead_end" x="167.28" y="248.89" incLanes="208_0" intLanes="" shape="167.86,250.54 166.70,247.24" rightOfWay="edgePriority"/>

    <connection from="177" to="204" fromLane="0" toLane="0" contPos="-4.00" shape="225.18,195.31 226.44,196.67 227.51,197.57 228.70,198.30 229.99,198.84 231.35,199.14 232.74,199.22 234.13,199.07 235.46,198.76" via=":35_2_0" dir="r" state="m"/>
    <connection from="177" to="208" fromLane="0" toLane="0" contPos="-4.00" shape="225.18,195.31 226.40,197.06 227.31,198.98 227.67,200.36 227.76,201.78 227.56,203.18 227.06,204.52 226.34,205.74 224.96,207.37 223.36,208.76" via=":35_3_0" dir="l" state="m"/>
    <connection from="178" to="181" fromLane="0" toLane="0" contPos="-4.00" shape="194.68,157.16 193.46,154.34 192.07,149.96 190.45,144.59 189.29,141.76 188.07,139.56" via=":33_0_0" dir="s" state="M"/>
    <connection from="178" to="202" fromLane="0" toLane="0" contPos="-4.00" shape="194.68,157.16 193.93,155.38 193.45,153.53 193.30,151.63 193.49,149.72 194.01,147.89 194.83,146.16 195.86,144.55 197.49,142.59 199.32,140.82" via=":33_1_0" dir="l" state="m"/>
    <connection from="180" to="202" fromLane="0" toLane="0" contPos="-4.00" shape="191.01,137.66 191.31,138.12 191.62,138.56 191.95,139.00 192.30,139.43 192.66,139.84 193.04,140.23 193.45,140.60 193.87,140.95 194.32,141.26 194.79,141.53 195.29,141.75 195.81,141.91 196.34,141.99 196.89,141.99 197.43,141.90 197.95,141.72 198.44,141.46 198.90,141.15 199.32,140.82" via=":33_4_0" dir="r" state="M"/>
    <connection from="180" to="177" fromLane="0" toLane="0" contPos="-4.00" shape="191.01,137.66 192.34,140.07 193.60,143.09 195.27,148.59 196.64,152.91 197.83,155.64" via=":33_5_0" dir="s" state="M"/>
    <connection from="181" to="770" fromLane="0" toLane="0" contPos="-4.00" shape="164.72,113.76 163.65,112.82 162.48,112.00 161.19,111.38 160.28,111.11 159.34,110.97 158.39,110.98 157.45,111.13 156.10,111.59 154.84,112.27 153.68,113.10" via=":34_0_0" dir="r" state="m"/>
    <connection from="181" to="184" fromLane="0" toLane="0" contPos="-4.00" shape="164.72,113.76 157.24,106.63 151.48,101.60" via=":34_1_0" dir="s" state="m"/>
    <connection from="181" to="766" fromLane="0" toLane="0" contPos="-4.00" shape="164.72,113.76 163.28,112.17 162.06,110.41 161.43,109.13 161.00,107.77 160.83,106.35 160.93,104.93 161.31,103.55 161.91,102.25 163.12,100.49 164.58,98.91" via=":34_2_0" dir="l" state="m"/>
    <connection from="183" to="766" fromLane="0" toLane="0" contPos="-4.00" shape="153.72,98.91 155.22,99.99 156.46,100.65 157.78,101.11 158.70,101.27 160.10,101.26 161.02,101.08 162.32,100.56 163.50,99.82 164.58,98.91" via=":34_6_0" dir="r" state="m"/>
    <connection from="183" to="180" fromLane="0" toLane="0" contPos="-4.00" shape="153.72,98.91 159.60,104.05 167.17,111.27" via=":34_7_0" dir="s" state="m"/>
    <connection from="183" to="770" fromLane="0" toLane="0" contPos="-4.00" shape="153.72,98.91 155.42,100.50 156.42,101.69 157.26,103.02 157.82,104.47 157.97,105.24 158.03,106.01 157.98,106.79 157.58,108.30 156.86,109.69 155.93,110.94 154.28,112.60 153.68,113.10" via=":34_8_0" dir="l" state="m"/>
    <connection from="201" to="177" fromLane="0" toLane="0" contPos="-4.00" shape="201.60,143.47 200.15,144.88 198.83,146.43 198.03,147.65 197.40,148.93 197.00,150.24 196.83,151.58 196.92,152.93 197.25,154.26 197.83,155.64" via=":33_2_0" dir="r" state="m"/>
    <connection from="201" to="181" fromLane="0" toLane="0" contPos="-4.00" shape="201.60,143.47 199.83,144.72 198.33,145.36 196.71,145.64 195.77,145.61 194.22,145.26 193.40,144.91 192.14,144.14 191.00,143.19 189.59,141.67 188.07,139.56" via=":33_3_0" dir="l" state="m"/>
    <connection from="205" to="208" fromLane="0" toLane="0" contPos="-4.00" shape="236.46,202.11 232.77,203.41 229.62,204.84 226.60,206.53 223.74,208.47 223.36,208.76" via=":35_0_0" dir="s" state="M"/>
    <connection from="205" to="178" fromLane="0" toLane="0" contPos="-4.00" shape="236.46,202.11 234.69,202.53 232.80,202.73 230.88,202.63 228.98,202.22 227.18,201.48 225.55,200.49 224.10,199.28 222.45,197.49" via=":35_1_0" dir="l" state="m"/>
    <connection from="207" to="178" fromLane="0" toLane="0" contPos="-4.00" shape="221.19,206.01 222.36,205.00 223.31,203.89 223.75,203.16 224.04,202.38 224.16,201.59 224.12,200.80 223.91,199.99 223.30,198.70 222.45,197.49" via=":35_4_0" dir="r" state="M"/>