<routes>
	<vehicle depart="0.1" departLane="0" departPos="6.4157612099236845" departSpeed="0.97872348" id="314" type="bicycle">
		<route edges=":13_1 102647"/>
	</vehicle>
	<vehicle depart="0.1" departLane="0" departPos="5.490083982293045" departSpeed="9.4889608" id="316" type="bicycle">
		<route edges="102647"/>
	</vehicle>
	<vehicle depart="0.1" departLane="0" departPos="12.282395857196473" departSpeed="2.712771" id="33" type="passenger">
		<route edges=":13_2 102723"/>
	</vehicle>
	<vehicle depart="0.1" departLane="0" departPos="72.49988775278207" departSpeed="2.2022578" id="34" type="passenger">
		<route edges="102438 102723"/>
	</vehicle>
	<vehicle depart="0.1" departLane="0" departPos="63.10834771054903" departSpeed="0.93162492" id="35" type="passenger">
		<route edges="102438 102723"/>
	</vehicle>
	<vehicle depart="0.1" departLane="0" departPos="67.23586268702776" departSpeed="3.0504286" id="311" type="passenger">
		<route edges="102648 102723"/>
	</vehicle>
	<vehicle depart="0.1" departLane="0" departPos="59.70206981558738" departSpeed="1.0380484" id="317" type="passenger">
		<route edges="102648 102723"/>
	</vehicle>
	<vehicle depart="0.1" departLane="0" departPos="30.714498757544558" departSpeed="7.329817" id="321" type="passenger">
		<route edges=":13_1 102647"/>
	</vehicle>
	<vehicle depart="0.1" departLane="0" departPos="47.02376767607933" departSpeed="3.839521" id="333" type="passenger">
		<route edges="102648 102723"/>
	</vehicle>
	<vehicle depart="0.1" departLane="0" departPos="17.75173336643124" departSpeed="8.7628747" id="329" type="motorcycle">
		<route edges=":13_1 102647"/>
	</vehicle>
</routes>
