<routes>
	<vehicle depart="0.1" departLane="0" departPos="0" departSpeed="8.7969" id="30" type="passenger">
		<route edges="373 443 363"/>
	</vehicle>
	<vehicle depart="0.1" departLane="0" departPos="120.42954457163884" departSpeed="7.701" id="31" type="passenger">
		<route edges="363 454 352 459 366"/>
	</vehicle>
	<vehicle depart="0.1" departLane="0" departPos="58.382593270621996" departSpeed="4.2547" id="32" type="passenger">
		<route edges="332 390 339 421 335"/>
	</vehicle>
	<vehicle depart="0.1" departLane="0" departPos="0" departSpeed="7.1274" id="33" type="passenger">
		<route edges="347 399 358 393 360 433 378 385 373 443"/>
	</vehicle>
	<vehicle depart="0.1" departLane="0" departPos="0" departSpeed="8.9841" id="34" type="passenger">
		<route edges="344"/>
	</vehicle>
	<vehicle depart="0.1" departLane="0" departPos="100.20628804180951" departSpeed="8.5112" id="35" type="passenger">
		<route edges="364 447 374 389 377 464 359 415"/>
	</vehicle>
	<vehicle depart="0.1" departLane="0" departPos="0" departSpeed="8.6092" id="36" type="passenger">
		<route edges="357 469 346 411 342 402 338 422 333"/>
	</vehicle>
	<vehicle depart="0.1" departLane="0" departPos="85.53064855053265" departSpeed="0.0" id="37" type="passenger">
		<route edges="355 416 360 433 378 385 373 443"/>
	</vehicle>
	<vehicle depart="0.1" departLane="0" departPos="77.9672555892372" departSpeed="0.0672" id="38" type="passenger">
		<route edges="355 416 360 433 378 385 373 443"/>
	</vehicle>
	<vehicle depart="0.1" departLane="0" departPos="0" departSpeed="8.3854" id="39" type="passenger">
		<route edges="376 401 334 398 343"/>
	</vehicle>
	<vehicle depart="0.1" departLane="0" departPos="6.2206296469554605" departSpeed="7.6271" id="310" type="passenger">
		<route edges="445 342 402 338 422 333"/>
	</vehicle>
	<vehicle depart="0.1" departLane="0" departPos="69.96694885387208" departSpeed="0.5092" id="311" type="passenger">
		<route edges="355 416 360 433 378 385 373 443"/>
	</vehicle>
	<vehicle depart="0.1" departLane="0" departPos="50.539428785096774" departSpeed="7.7209" id="312" type="passenger">
		<route edges="339 421 335 429 375"/>
	</vehicle>
	<vehicle depart="0.1" departLane="0" departPos="0" departSpeed="6.7186" id="314" type="passenger">
		<route edges="427 354"/>
	</vehicle>
	<vehicle depart="0.1" departLane="0" departPos="73.84313466271064" departSpeed="3.948" id="315" type="passenger">
		<route edges="352 459 366 458 356"/>
	</vehicle>
	<vehicle depart="0.1" departLane="0" departPos="44.32954376134093" departSpeed="5.4388" id="316" type="passenger">
		<route edges="332 390 339 421 335"/>
	</vehicle>
	<vehicle depart="0.1" departLane="0" departPos="0" departSpeed="7.2824" id="317" type="passenger">
		<route edges="368 419 333 432 327"/>
	</vehicle>
	<vehicle depart="0.1" departLane="0" departPos="0" departSpeed="8.7076" id="318" type="passenger">
		<route edges="373 443 363"/>
	</vehicle>
	<vehicle depart="0.1" departLane="0" departPos="86.22582516849286" departSpeed="6.8527" id="319" type="passenger">
		<route edges="363 454 352 459 366"/>
	</vehicle>
	<vehicle depart="0.1" departLane="0" departPos="0" departSpeed="7.1794" id="320" type="passenger">
		<route edges="346 411 342 402 338 422 333"/>
	</vehicle>
	<vehicle depart="0.1" departLane="0" departPos="0" departSpeed="5.9073" id="321" type="passenger">
		<route edges="358 456 376"/>
	</vehicle>
	<vehicle depart="0.1" departLane="0" departPos="0" departSpeed="7.3518" id="322" type="passenger">
		<route edges="368 419 333 432 327"/>
	</vehicle>
	<vehicle depart="0.1" departLane="0" departPos="71.75952275767172" departSpeed="6.7921" id="323" type="passenger">
		<route edges="363 454 352 459 366"/>
	</vehicle>
	<vehicle depart="0.1" departLane="0" departPos="13.796818433087338" departSpeed="7.6504" id="324" type="passenger">
		<route edges="353 426 434 426 341"/>
	</vehicle>
	<vehicle depart="0.1" departLane="0" departPos="93.18570220700029" departSpeed="7.5016" id="325" type="passenger">
		<route edges="362 413 347 399 358 393 360 433 378 385 373 443"/>
	</vehicle>
	<vehicle depart="0.1" departLane="0" departPos="0" departSpeed="7.0269" id="471" type="passenger">
		<route edges="359 387 376 401 334 398 343"/>
	</vehicle>
	<vehicle depart="0.1" departLane="0" departPos="0" departSpeed="8.5235" id="472" type="passenger">
		<route edges="342 402 338 422 333"/>
	</vehicle>
	<vehicle depart="0.1" departLane="0" departPos="0" departSpeed="9.7224" id="473" type="passenger">
		<route edges="375 437 357 469 346 411 342"/>
	</vehicle>
	<vehicle depart="0.1" departLane="0" departPos="0" departSpeed="8.2629" id="474" type="passenger">
		<route edges="339 382 343 463 347 399 358 393 360 433"/>
	</vehicle>
	<vehicle depart="0.1" departLane="0" departPos="89.08747086201578" departSpeed="0.8916" id="475" type="passenger">
		<route edges="352 459 366 458 356"/>
	</vehicle>
	<vehicle depart="0.1" departLane="0" departPos="5.413740080590512" departSpeed="7.3166" id="476" type="passenger">
		<route edges="467 359 387 376 401 334 398 343"/>
	</vehicle>
	<vehicle depart="0.1" departLane="0" departPos="0" departSpeed="6.1339" id="477" type="passenger">
		<route edges="332 390 339 421 335"/>
	</vehicle>
	<vehicle depart="0.1" departLane="0" departPos="0" departSpeed="8.169" id="478" type="passenger">
		<route edges="339 421 335 429 375"/>
	</vehicle>
	<vehicle depart="0.1" departLane="0" departPos="0" departSpeed="7.3847" id="479" type="passenger">
		<route edges="368 419 333 432 327"/>
	</vehicle>
	<vehicle depart="0.1" departLane="0" departPos="102.84836260460068" departSpeed="6.2604" id="480" type="passenger">
		<route edges="365 424 353 434 364"/>
	</vehicle>
	<vehicle depart="0.1" departLane="0" departPos="129.0499950647664" departSpeed="9.0055" id="481" type="passenger">
		<route edges="350 395 373 443 363"/>
	</vehicle>
	<vehicle depart="0.1" departLane="0" departPos="0" departSpeed="6.5114" id="482" type="passenger">
		<route edges="332 390 339 421 335"/>
	</vehicle>
	<vehicle depart="0.1" departLane="0" departPos="59.985003618761" departSpeed="5.293" id="483" type="passenger">
		<route edges="352 459 366 458 356"/>
	</vehicle>
	<vehicle depart="0.1" departLane="0" departPos="45.50929862270985" departSpeed="6.0504" id="484" type="passenger">
		<route edges="352 459 366 458 356"/>
	</vehicle>
	<vehicle depart="0.1" departLane="0" departPos="57.30812876330479" departSpeed="6.7433" id="485" type="passenger">
		<route edges="363 454 352 459 366"/>
	</vehicle>
	<vehicle depart="0.1" departLane="0" departPos="42.90327763410836" departSpeed="6.7814" id="486" type="passenger">
		<route edges="363 454 352 459 366"/>
	</vehicle>
	<vehicle depart="0.1" departLane="0" departPos="0" departSpeed="8.6309" id="487" type="passenger">
		<route edges="441 338 444 328"/>
	</vehicle>
	<vehicle depart="0.1" departLane="0" departPos="0" departSpeed="8.1756" id="488" type="passenger">
		<route edges="339 421 335 429 375"/>
	</vehicle>
	<vehicle depart="0.1" departLane="0" departPos="129.0499950647664" departSpeed="7.3367" id="489" type="passenger">
		<route edges="350 395 373 443 363"/>
	</vehicle>
	<vehicle depart="0.1" departLane="0" departPos="71.39524322831204" departSpeed="1.5448" id="490" type="passenger">
		<route edges="332 390 339 421 335"/>
	</vehicle>
	<vehicle depart="0.1" departLane="0" departPos="0" departSpeed="7.3117" id="491" type="passenger">
		<route edges="368 419 333 432 327"/>
	</vehicle>
	<vehicle depart="0.1" departLane="0" departPos="76.35176367319048" departSpeed="7.1173" id="492" type="passenger">
		<route edges="365 438 334 398 343"/>
	</vehicle>
	<vehicle depart="0.1" departLane="0" departPos="60.79828018465389" departSpeed="1.5118" id="493" type="passenger">
		<route edges="355 416 360 433 378 385 373 443"/>
	</vehicle>
	<vehicle depart="0.1" departLane="0" departPos="0" departSpeed="7.2561" id="494" type="passenger">
		<route edges="368 419 333 432 327"/>
	</vehicle>
	<vehicle depart="0.1" departLane="0" departPos="0" departSpeed="6.9575" id="495" type="passenger">
		<route edges="362 413 347 399 358 393 360 433 378 385 373"/>
	</vehicle>
	<vehicle depart="0.1" departLane="0" departPos="73.9641416301029" departSpeed="7.2603" id="496" type="passenger">
		<route edges="350 395 373 443 363"/>
	</vehicle>
	<vehicle depart="0.1" departLane="0" departPos="0" departSpeed="8.0509" id="497" type="passenger">
		<route edges="400 339 421 335 429 375"/>
	</vehicle>
	<vehicle depart="0.1" departLane="0" departPos="28.604435354752773" departSpeed="6.7388" id="498" type="passenger">
		<route edges="363 454 352 459 366"/>
	</vehicle>
	<vehicle depart="0.1" departLane="0" departPos="0" departSpeed="6.5541" id="499" type="passenger">
		<route edges="352 459 366 458 356"/>
	</vehicle>
	<vehicle depart="0.1" departLane="0" departPos="74.81077611382986" departSpeed="7.6589" id="500" type="passenger">
		<route edges="345 467 359 415 357 469 346 411 342"/>
	</vehicle>
	<vehicle depart="0.1" departLane="0" departPos="0" departSpeed="6.7592" id="501" type="passenger">
		<route edges="332 390 339 421 335"/>
	</vehicle>
	<vehicle depart="0.1" departLane="0" departPos="25.55437272150104" departSpeed="2.6771" id="502" type="passenger">
		<route edges="370 448 346 411 342"/>
	</vehicle>
	<vehicle depart="0.1" departLane="0" departPos="0" departSpeed="7.249" id="503" type="passenger">
		<route edges="368 419 333 432 327"/>
	</vehicle>
	<vehicle depart="0.1" departLane="0" departPos="61.749221439482966" departSpeed="6.9874" id="504" type="passenger">
		<route edges="365 438 334 398 343"/>
	</vehicle>
	<vehicle depart="0.1" departLane="0" departPos="50.29836679064931" departSpeed="2.6083" id="505" type="passenger">
		<route edges="355 416 360 433 378 385 373 443"/>
	</vehicle>
	<vehicle depart="0.1" departLane="0" departPos="64.93389988505504" departSpeed="8.064" id="506" type="passenger">
		<route edges="329 400 339 421 335 429 375"/>
	</vehicle>
	<vehicle depart="0.1" departLane="0" departPos="59.2569254996411" departSpeed="7.1134" id="507" type="passenger">
		<route edges="350 395 373 443 363"/>
	</vehicle>
	<vehicle depart="0.1" departLane="0" departPos="0" departSpeed="7.1321" id="508" type="passenger">
		<route edges="331"/>
	</vehicle>
	<vehicle depart="0.1" departLane="0" departPos="0" departSpeed="7.0041" id="509" type="passenger">
		<route edges="362 445 342 402 338 422 333"/>
	</vehicle>
	<vehicle depart="0.1" departLane="0" departPos="0" departSpeed="6.7919" id="510" type="passenger">
		<route edges="352 459 366 458 356"/>
	</vehicle>
	<vehicle depart="0.1" departLane="0" departPos="57.866858611465915" departSpeed="7.4874" id="511" type="passenger">
		<route edges="345 467 359 415 357 469 346 411 342"/>
	</vehicle>
	<vehicle depart="0.1" departLane="0" departPos="0" departSpeed="6.637" id="512" type="passenger">
		<route edges="363 454 352 459 366"/>
	</vehicle>
	<vehicle depart="0.1" departLane="0" departPos="53.976597664302574" departSpeed="6.802" id="513" type="passenger">
		<route edges="326 470 332 390 339 421 335"/>
	</vehicle>
	<vehicle depart="0.1" departLane="0" departPos="0" departSpeed="6.8669" id="514" type="passenger">
		<route edges="365 431 375 437 357 469 346 411 342"/>
	</vehicle>
	<vehicle depart="0.1" departLane="0" departPos="0" departSpeed="3.469" id="515" type="passenger">
		<route edges="355 416 360 433 378 385 373 443"/>
	</vehicle>
	<vehicle depart="0.1" departLane="0" departPos="44.89082050967896" departSpeed="6.9272" id="516" type="passenger">
		<route edges="350 395 373 443 363"/>
	</vehicle>
	<vehicle depart="0.1" departLane="0" departPos="0" departSpeed="7.378" id="517" type="passenger">
		<route edges="352 459 366 458 356"/>
	</vehicle>
	<vehicle depart="0.1" departLane="0" departPos="0" departSpeed="7.0757" id="518" type="passenger">
		<route edges="368 419 333 432 327"/>
	</vehicle>
	<vehicle depart="0.1" departLane="0" departPos="0" departSpeed="6.7438" id="519" type="passenger">
		<route edges="362 413 347 399 358 393 360 433 378 385 373"/>
	</vehicle>
	<vehicle depart="0.1" departLane="0" departPos="43.06128336923974" departSpeed="7.3443" id="520" type="passenger">
		<route edges="345 467 359 387 376 401 334 398 343"/>
	</vehicle>
	<vehicle depart="0.1" departLane="0" departPos="0" departSpeed="6.6469" id="521" type="passenger">
		<route edges="363 454 352 459 366"/>
	</vehicle>
	<vehicle depart="0.1" departLane="0" departPos="0" departSpeed="2.6135" id="522" type="passenger">
		<route edges="370 448 346 411 342"/>
	</vehicle>
	<vehicle depart="0.1" departLane="0" departPos="0" departSpeed="6.5676" id="523" type="passenger">
		<route edges="365 424 353 434 364"/>
	</vehicle>
	<vehicle depart="0.1" departLane="0" departPos="0" departSpeed="3.8987" id="524" type="passenger">
		<route edges="355 416 360 433 378 385 373 443"/>
	</vehicle>
	<vehicle depart="0.1" departLane="0" departPos="0" departSpeed="6.5409" id="525" type="passenger">
		<route edges="350 453 377 464 359 415 357 469 346"/>
	</vehicle>
	<vehicle depart="0.1" departLane="0" departPos="40.740660831001435" departSpeed="7.6919" id="526" type="passenger">
		<route edges="330 450 348 461 365 431"/>
	</vehicle>
	<vehicle depart="0.1" departLane="0" departPos="0" departSpeed="6.63" id="527" type="passenger">
		<route edges="368 419 333 432 327"/>
	</vehicle>
	<vehicle depart="0.1" departLane="0" departPos="44.281575311038374" departSpeed="9.2331" id="528" type="passenger">
		<route edges="329 400 339 421 335 429 375"/>
	</vehicle>
	<vehicle depart="0.1" departLane="0" departPos="0" departSpeed="7.3827" id="529" type="passenger">
		<route edges="392 430 392 352 459 366 458 356"/>
	</vehicle>
	<vehicle depart="0.1" departLane="0" departPos="0" departSpeed="6.4591" id="530" type="passenger">
		<route edges="362 413 347 399 358 393 360 433 378 385 373"/>
	</vehicle>
	<vehicle depart="0.1" departLane="0" departPos="0" departSpeed="6.8281" id="531" type="passenger">
		<route edges="345 467 359 415 357 469 346 411 342"/>
	</vehicle>
	<vehicle depart="0.1" departLane="0" departPos="22.86886884747198" departSpeed="6.1796" id="532" type="passenger">
		<route edges="372 394 363 454 352 459 366"/>
	</vehicle>
	<vehicle depart="0.1" departLane="0" departPos="0" departSpeed="6.0116" id="533" type="passenger">
		<route edges="365 431 375"/>
	</vehicle>
	<vehicle depart="0.1" departLane="0" departPos="0" departSpeed="8.3866" id="534" type="passenger">
		<route edges="329 400 339 421 335 429 375"/>
	</vehicle>
	<vehicle depart="0.1" departLane="0" departPos="0" departSpeed="3.9382" id="535" type="passenger">
		<route edges="355 416 360 433 378 385 373 443"/>
	</vehicle>
	<vehicle depart="0.1" departLane="0" departPos="0" departSpeed="5.9075" id="536" type="passenger">
		<route edges="350 453 377 464 359 415 357 469 346"/>
	</vehicle>
	<vehicle depart="0.1" departLane="0" departPos="0" departSpeed="5.8575" id="537" type="passenger">
		<route edges="368 419 333 432 327"/>
	</vehicle>
	<vehicle depart="0.1" departLane="0" departPos="0" departSpeed="5.9258" id="538" type="passenger">
		<route edges="345 467 359 415 357 469 346 411 342"/>
	</vehicle>
	<vehicle depart="0.1" departLane="0" departPos="0" departSpeed="6.1257" id="539" type="passenger">
		<route edges="340 392 430 392 352 459 366 458 356"/>
	</vehicle>
	<vehicle depart="0.1" departLane="0" departPos="0" departSpeed="5.5012" id="540" type="passenger">
		<route edges="362 445 342"/>
	</vehicle>
	<vehicle depart="0.1" departLane="0" departPos="0" departSpeed="5.1283" id="541" type="passenger">
		<route edges="372 394 363 454 352 459 366"/>
	</vehicle>
	<vehicle depart="0.1" departLane="0" departPos="0" departSpeed="2.162" id="3100" type="passenger">
		<route edges="370 448 346 411 342"/>
	</vehicle>
	<vehicle depart="0.1" departLane="0" departPos="0" departSpeed="4.8839" id="3101" type="passenger">
		<route edges="365 431 375"/>
	</vehicle>
	<vehicle depart="0.1" departLane="0" departPos="0" departSpeed="5.5751" id="3102" type="passenger">
		<route edges="329 400 339 421 335 429 375"/>
	</vehicle>
	<vehicle depart="0.1" departLane="0" departPos="0" departSpeed="3.3064" id="3103" type="passenger">
		<route edges="350 453 377 464 359 415 357 469 346"/>
	</vehicle>
	<vehicle depart="0.1" departLane="0" departPos="0" departSpeed="3.7441" id="3104" type="passenger">
		<route edges="368 419 333 432 327"/>
	</vehicle>
	<vehicle depart="0.1" departLane="0" departPos="0" departSpeed="2.8678" id="3105" type="passenger">
		<route edges="355 416 360 433 378 385 373 443"/>
	</vehicle>
	<vehicle depart="0.1" departLane="0" departPos="0" departSpeed="4.0974" id="3106" type="passenger">
		<route edges="345 467 359 415 357 469 346 411 342"/>
	</vehicle>
	<vehicle depart="0.1" departLane="0" departPos="0" departSpeed="3.6228" id="3107" type="passenger">
		<route edges="362 413 347 399 358 393 360 433"/>
	</vehicle>
	<vehicle depart="0.1" departLane="0" departPos="0" departSpeed="3.1146" id="3108" type="passenger">
		<route edges="340 392 430 392 352 459 366 458 356"/>
	</vehicle>
	<vehicle depart="0.1" departLane="0" departPos="0" departSpeed="3.3883" id="3109" type="passenger">
		<route edges="326 470 332 390 339"/>
	</vehicle>
	<vehicle depart="0.1" departLane="0" departPos="0" departSpeed="2.3206" id="3110" type="passenger">
		<route edges="372 394 363 454 352 459 366"/>
	</vehicle>
	<vehicle depart="0.1" departLane="0" departPos="0" departSpeed="7.8591" id="3111" type="passenger">
		<route edges="330 450 348 461 365 431"/>
	</vehicle>
</routes>
