<!-- generated on 2020-12-18 16:26:10.443958 by ipykernel_launcher.py v1_2_0+5214-53edc58fcd
-->
<edges>
	<edge from="1" function="normal" id="326" length="55.32970637297859" numLanes="1" priority="1" speed="36.11111111111111" spreadType="center" to="2">
		<lane allow="moped bicycle pedestrian custom1 trailer evehicle rail_urban ship private truck vip custom2 authority delivery rail_electric taxi tram army hov coach motorcycle passenger bus rail emergency" index="0" length="55.32970637297859" shape="-206.7222,148.8256 -200.334,121.91585 -193.9419,94.99215000000001" speed="36.11111111111111" width="2.499992103987528"/>
	</edge>
	<edge from="3" function="normal" id="327" length="55.29609879470649" numLanes="1" priority="1" speed="36.11111111111111" spreadType="center" to="4">
		<lane allow="moped bicycle pedestrian custom1 trailer evehicle rail_urban ship private truck vip custom2 authority delivery rail_electric taxi tram army hov coach motorcycle passenger bus rail emergency" index="0" length="55.29609879470649" shape="-191.51805000000002,95.6018 -197.90235,122.4965 -204.28975,149.40275" speed="36.11111111111111" width="2.498634909305475"/>
	</edge>
	<edge from="5" function="normal" id="328" length="80.29972039894625" numLanes="1" priority="1" speed="36.11111111111111" spreadType="center" to="6">
		<lane allow="moped bicycle pedestrian custom1 trailer evehicle rail_urban ship private truck vip custom2 authority delivery rail_electric taxi tram army hov coach motorcycle passenger bus rail emergency" index="0" length="80.29972039894625" shape="-176.4269,3.7449500000000002 -215.41289999999998,-5.8426 -254.4031,-15.43205" speed="36.11111111111111" width="2.499930151024226"/>
	</edge>
	<edge from="7" function="normal" id="329" length="80.30409502251526" numLanes="1" priority="1" speed="36.11111111111111" spreadType="center" to="8">
		<lane allow="moped bicycle pedestrian custom1 trailer evehicle rail_urban ship private truck vip custom2 authority delivery rail_electric taxi tram army hov coach motorcycle passenger bus rail emergency" index="0" length="80.30409502251526" shape="-253.80605,-17.8597 -214.81585,-8.27025 -175.82580000000002,1.31915" speed="36.11111111111111" width="2.498214212192377"/>
	</edge>
	<edge from="9" function="normal" id="330" length="84.48459335120862" numLanes="1" priority="1" speed="36.11111111111111" spreadType="center" to="10">
		<lane allow="moped bicycle pedestrian custom1 trailer evehicle rail_urban ship private vip custom2 authority delivery rail_electric taxi tram army hov coach motorcycle passenger rail emergency" index="0" length="84.48459335120862" shape="-152.22065,239.19095 -151.7614,232.55 -151.35615,228.4743 -150.74555,225.4644 -149.802,222.5414 -148.2097,218.768 -146.29315,215.1482 -143.82195000000002,211.25869999999998 -140.18775,206.3039 -135.95995,201.16215 -131.1101,195.8826 -125.2795,190.12625000000003 -115.07015,180.8012 -105.63919999999999,172.1487" speed="36.11111111111111" width="2.499490668116216"/>
	</edge>
	<edge from="11" function="normal" id="331" length="82.65637060801163" numLanes="1" priority="1" speed="36.11111111111111" spreadType="center" to="12">
		<lane allow="moped bicycle pedestrian custom1 trailer evehicle rail_urban ship private vip custom2 authority delivery rail_electric taxi tram army hov coach motorcycle passenger rail emergency" index="0" length="82.65637060801163" shape="-103.9348,173.97705 -113.2662,182.54115000000002 -123.35815,191.7498 -129.09885,197.39935 -133.8668,202.56575 -138.0208,207.58995 -141.588,212.42255 -144.0025,216.18365 -145.8672,219.6634 -147.41415,223.29005 -148.31845,226.05714999999998 -148.89425,228.90365 -149.2763,232.85955 -149.73095,239.41264999999999" speed="36.11111111111111" width="2.500003715997244"/>
	</edge>
	<edge from="13" function="normal" id="332" length="74.19137250733267" numLanes="1" priority="1" speed="36.11111111111111" spreadType="center" to="14">
		<lane allow="moped bicycle pedestrian custom1 trailer evehicle rail_urban ship private truck vip custom2 authority delivery rail_electric taxi tram army hov coach motorcycle passenger bus rail emergency" index="0" length="74.19137250733267" shape="-190.8367,82.78235000000001 -181.3666,46.9009 -171.9028,11.04765" speed="36.11111111111111" width="2.497531847644792"/>
	</edge>
	<edge from="15" function="normal" id="333" length="74.16167322710821" numLanes="1" priority="1" speed="36.11111111111111" spreadType="center" to="16">
		<lane allow="moped bicycle pedestrian custom1 trailer evehicle rail_urban ship private truck vip custom2 authority delivery rail_electric taxi tram army hov coach motorcycle passenger bus rail emergency" index="0" length="74.16167322710821" shape="-169.4875,11.68915 -178.9494,47.5389 -188.41395,83.3951" speed="36.11111111111111" width="2.499023027104788"/>
	</edge>
	<edge from="17" function="normal" id="334" length="55.76720847821634" numLanes="1" priority="1" speed="36.11111111111111" spreadType="center" to="18">
		<lane allow="moped bicycle pedestrian custom1 trailer evehicle rail_urban ship private truck vip custom2 authority delivery rail_electric taxi tram army hov coach motorcycle passenger bus rail emergency" index="0" length="55.76720847821634" shape="-26.5587,49.8937 -52.813900000000004,40.52785 -79.08385,31.1563" speed="36.11111111111111" width="2.499267598717673"/>
	</edge>
	<edge from="19" function="normal" id="335" length="55.7639191101528" numLanes="1" priority="1" speed="36.11111111111111" spreadType="center" to="20">
		<lane allow="moped bicycle pedestrian custom1 trailer evehicle rail_urban ship private truck vip custom2 authority delivery rail_electric taxi tram army hov coach motorcycle passenger bus rail emergency" index="0" length="55.7639191101528" shape="-78.2298,28.8073 -51.9739,38.173199999999994 -25.70775,47.5436" speed="36.11111111111111" width="2.4995551144153656"/>
	</edge>
	<edge from="21" function="normal" id="336" length="46.65723765047554" numLanes="1" priority="1" speed="36.11111111111111" spreadType="center" to="22">
		<lane allow="moped bicycle pedestrian custom1 trailer evehicle rail_urban ship private vip custom2 authority delivery rail_electric taxi tram army hov coach motorcycle passenger rail emergency" index="0" length="46.65723765047554" shape="-52.73285,182.99464999999998 -61.3409,185.31145 -65.95660000000001,186.28975 -70.63659999999999,186.88965000000002 -73.2565,186.92419999999998 -75.855,186.5903 -78.3882,185.9217 -80.8063,184.91315 -83.5256,183.33440000000002 -86.46275,181.13575 -90.72595,177.2518 -94.61385,173.7298" speed="36.11111111111111" width="2.4997142576702736"/>
	</edge>
	<edge from="23" function="normal" id="337" length="44.26829670909403" numLanes="1" priority="1" speed="36.11111111111111" spreadType="center" to="24">
		<lane allow="moped bicycle pedestrian custom1 trailer evehicle rail_urban ship private vip custom2 authority delivery rail_electric taxi tram army hov coach motorcycle passenger rail emergency" index="0" length="44.26829670909403" shape="-92.9996,171.82235 -89.17605,175.2764 -85.07065,179.04085 -82.33035000000001,181.12705 -79.82825,182.60865 -77.6382,183.53905 -75.33795,184.14735000000002 -72.97704999999999,184.43845 -70.5756,184.37835 -66.1366,183.7853 -61.7195,182.8289 -53.362049999999996,180.5752" speed="36.11111111111111" width="2.498009489573633"/>
	</edge>
	<edge from="25" function="normal" id="338" length="72.01873691555875" numLanes="1" priority="1" speed="36.11111111111111" spreadType="center" to="26">
		<lane allow="moped bicycle pedestrian custom1 trailer evehicle rail_urban ship private truck vip custom2 authority delivery rail_electric taxi tram army hov coach motorcycle passenger bus rail emergency" index="0" length="72.01873691555875" shape="-92.8067,26.7843 -127.5037,17.1275 -162.1879,7.47245" speed="36.11111111111111" width="2.4999653437597913"/>
	</edge>
	<edge from="27" function="normal" id="339" length="72.00382096377919" numLanes="1" priority="1" speed="36.11111111111111" spreadType="center" to="28">
		<lane allow="moped bicycle pedestrian custom1 trailer evehicle rail_urban ship private truck vip custom2 authority delivery rail_electric taxi tram army hov coach motorcycle passenger bus rail emergency" index="0" length="72.00382096377919" shape="-161.5164,5.0653 -126.83335,14.71905 -92.1495,24.3729" speed="36.11111111111111" width="2.497905658746939"/>
	</edge>
	<edge from="29" function="normal" id="340" length="31.18565629019253" numLanes="1" priority="1" speed="36.11111111111111" spreadType="center" to="30">
		<lane allow="moped bicycle pedestrian custom1 trailer evehicle rail_urban ship private truck vip custom2 authority delivery rail_electric taxi tram army hov coach motorcycle passenger bus rail emergency" index="0" length="31.18565629019253" shape="119.25465,83.78190000000001 103.7344,82.2688 88.21615,80.7559" speed="36.11111111111111" width="2.4995107621292583"/>
	</edge>
	<edge from="31" function="normal" id="341" length="31.153334205493916" numLanes="1" priority="1" speed="36.11111111111111" spreadType="center" to="32">
		<lane allow="moped bicycle pedestrian custom1 trailer evehicle rail_urban ship private truck vip custom2 authority delivery rail_electric taxi tram army hov coach motorcycle passenger bus rail emergency" index="0" length="31.153334205493916" shape="88.49080000000001,78.27154999999999 103.977,79.78059999999999 119.49719999999999,81.2937" speed="36.11111111111111" width="2.4999697778173253"/>
	</edge>
	<edge from="33" function="normal" id="342" length="226.95700706952283" numLanes="1" priority="1" speed="36.11111111111111" spreadType="center" to="34">
		<lane allow="moped bicycle pedestrian custom1 trailer evehicle rail_urban ship private truck vip custom2 authority delivery rail_electric taxi tram army hov coach motorcycle passenger bus rail emergency" index="0" length="226.95700706952283" shape="6.6975,-188.0266 -37.485,-83.50035 -81.6668,21.0218" speed="36.11111111111111" width="2.4978856018640965"/>
	</edge>
	<edge from="35" function="normal" id="343" length="226.95801125783845" numLanes="1" priority="1" speed="36.11111111111111" spreadType="center" to="36">
		<lane allow="moped bicycle pedestrian custom1 trailer evehicle rail_urban ship private truck vip custom2 authority delivery rail_electric taxi tram army hov coach motorcycle passenger bus rail emergency" index="0" length="226.95801125783845" shape="-83.9702,20.05245 -39.78775,-84.47370000000001 4.39455,-188.99685" speed="36.11111111111111" width="2.4980432522276326"/>
	</edge>
	<edge from="37" function="normal" id="344" length="84.82660970856978" numLanes="1" priority="1" speed="36.11111111111111" spreadType="center" to="38">
		<lane allow="moped bicycle pedestrian custom1 trailer evehicle rail_urban ship private truck vip custom2 authority delivery rail_electric taxi tram army hov coach motorcycle passenger bus rail emergency" index="0" length="84.82660970856978" shape="142.53570000000002,-154.25805 159.8279,-192.99495000000002 177.11374999999998,-231.71715" speed="36.11111111111111" width="2.498960329817179"/>
	</edge>
	<edge from="39" function="normal" id="345" length="84.83675449642938" numLanes="1" priority="1" speed="36.11111111111111" spreadType="center" to="40">
		<lane allow="moped bicycle pedestrian custom1 trailer evehicle rail_urban ship private truck vip custom2 authority delivery rail_electric taxi tram army hov coach motorcycle passenger bus rail emergency" index="0" length="84.83675449642938" shape="179.3966,-230.69805000000002 162.11075,-191.97584999999998 144.8136,-153.23005" speed="36.11111111111111" width="2.4999401372832777"/>
	</edge>
	<edge from="41" function="normal" id="346" length="49.587017175651475" numLanes="1" priority="1" speed="36.11111111111111" spreadType="center" to="42">
		<lane allow="moped bicycle pedestrian custom1 trailer evehicle rail_urban ship private truck vip custom2 authority delivery rail_electric taxi tram army hov coach motorcycle passenger bus rail emergency" index="0" length="49.587017175651475" shape="61.44005,-175.4398 38.0812,-183.78535 14.744050000000001,-192.12380000000002" speed="36.11111111111111" width="2.4987413811757175"/>
	</edge>
	<edge from="43" function="normal" id="347" length="49.5904915050597" numLanes="1" priority="1" speed="36.11111111111111" spreadType="center" to="44">
		<lane allow="moped bicycle pedestrian custom1 trailer evehicle rail_urban ship private truck vip custom2 authority delivery rail_electric taxi tram army hov coach motorcycle passenger bus rail emergency" index="0" length="49.5904915050597" shape="15.56,-194.48615 38.9224,-186.1396 62.25935,-177.8012" speed="36.11111111111111" width="2.4991196389928914"/>
	</edge>
	<edge from="45" function="normal" id="348" length="10.799991869974786" numLanes="1" priority="1" speed="36.11111111111111" spreadType="center" to="46">
		<lane allow="moped bicycle pedestrian custom1 trailer evehicle rail_urban ship private truck vip custom2 authority delivery rail_electric taxi tram army hov coach motorcycle passenger bus rail emergency" index="0" length="10.799991869974786" shape="-96.0463,161.62685 -92.59815,157.44825 -89.1714,153.29765" speed="36.11111111111111" width="2.498534852668649"/>
	</edge>
	<edge from="47" function="normal" id="349" length="10.811886375463033" numLanes="1" priority="1" speed="36.11111111111111" spreadType="center" to="48">
		<lane allow="moped bicycle pedestrian custom1 trailer evehicle rail_urban ship private truck vip custom2 authority delivery rail_electric taxi tram army hov coach motorcycle passenger bus rail emergency" index="0" length="10.811886375463033" shape="-87.2268,154.86785 -90.6702,159.03975 -94.1093,163.2062" speed="36.11111111111111" width="2.4983790745201087"/>
	</edge>
	<edge from="49" function="normal" id="350" length="129.0499950647664" numLanes="1" priority="1" speed="36.11111111111111" spreadType="center" to="50">
		<lane allow="moped bicycle pedestrian custom1 trailer evehicle rail_urban ship private vip custom2 authority delivery rail_electric taxi tram army hov coach motorcycle passenger rail emergency" index="0" length="129.0499950647664" shape="274.10704999999996,-83.80605 262.36545,-88.25104999999999 242.1646,-95.88175000000001 230.54559999999998,-100.6368 215.8626,-107.16745 199.06025,-115.1003 156.30984999999998,-136.25025" speed="36.11111111111111" width="2.499927584951208"/>
	</edge>
	<edge from="51" function="normal" id="351" length="128.83394818663203" numLanes="1" priority="1" speed="36.11111111111111" spreadType="center" to="52">
		<lane allow="moped bicycle pedestrian custom1 trailer evehicle rail_urban ship private vip custom2 authority delivery rail_electric taxi tram army hov coach motorcycle passenger rail emergency" index="0" length="128.83394818663203" shape="157.4014,-138.49895 200.11855,-117.36545 216.88335,-109.4496 231.52364999999998,-102.9374 243.09985,-98.2002 263.2685,-90.58245 275.00055,-86.1409" speed="36.11111111111111" width="2.4993081302632603"/>
	</edge>
	<edge from="53" function="normal" id="352" length="89.08747086201578" numLanes="1" priority="1" speed="36.11111111111111" spreadType="center" to="54">
		<lane allow="moped bicycle pedestrian custom1 trailer evehicle rail_urban ship private vip custom2 authority delivery rail_electric taxi tram army hov coach motorcycle passenger rail emergency" index="0" length="89.08747086201578" shape="73.2393,78.57490000000001 60.275850000000005,76.1819 42.8776,72.83015 14.69525,66.6349 6.84565,64.6397 0.56065,62.69055 -5.1263000000000005,60.557050000000004 -7.86995,59.258 -12.588550000000001,56.3505" speed="36.11111111111111" width="2.4992699754128207"/>
	</edge>
	<edge from="55" function="normal" id="353" length="88.12978468352512" numLanes="1" priority="1" speed="36.11111111111111" spreadType="center" to="56">
		<lane allow="moped bicycle pedestrian custom1 trailer evehicle rail_urban ship private vip custom2 authority delivery rail_electric taxi tram army hov coach motorcycle passenger rail emergency" index="0" length="88.12978468352512" shape="-11.2669,54.229600000000005 -6.6387,57.0843 -4.01035,58.3137 1.56825,60.393150000000006 7.758900000000001,62.2996 15.52055,64.25995 43.5197,70.40995000000001 60.80615,73.73755 73.6721,76.113" speed="36.11111111111111" width="2.4993197874621784"/>
	</edge>
	<edge from="57" function="normal" id="354" length="88.12834780009122" numLanes="1" priority="1" speed="36.11111111111111" spreadType="center" to="58">
		<lane allow="moped bicycle pedestrian custom1 trailer evehicle rail_urban ship private truck vip custom2 authority delivery rail_electric taxi tram army hov coach motorcycle passenger bus rail emergency" index="0" length="88.12834780009122" shape="108.0715,-168.1552 129.82909999999998,-206.47224999999997 151.58805,-244.79014999999998" speed="36.11111111111111" width="2.4999662917727528"/>
	</edge>
	<edge from="59" function="normal" id="355" length="88.12977234649682" numLanes="1" priority="1" speed="36.11111111111111" spreadType="center" to="60">
		<lane allow="moped bicycle pedestrian custom1 trailer evehicle rail_urban ship private truck vip custom2 authority delivery rail_electric taxi tram army hov coach motorcycle passenger bus rail emergency" index="0" length="88.12977234649682" shape="153.762,-243.5557 132.00305,-205.23775 110.24414999999999,-166.91985" speed="36.11111111111111" width="2.498571804051269"/>
	</edge>
	<edge from="61" function="normal" id="356" length="111.17373127408541" numLanes="1" priority="1" speed="36.11111111111111" spreadType="center" to="62">
		<lane allow="moped bicycle pedestrian custom1 trailer evehicle rail_urban ship private vip custom2 authority delivery rail_electric taxi tram army hov coach motorcycle passenger rail emergency" index="0" length="111.17373127408541" shape="-89.2211,145.0611 -107.97515000000001,128.8911 -115.0672,123.1954 -121.59129999999999,118.4199 -128.3441,113.97375 -135.2841,109.82555 -142.4085,106.0029 -149.7019,102.51335 -158.0704,98.94900000000001 -164.24195,96.69919999999999 -171.49295,94.49095 -184.67964999999998,90.9853" speed="36.11111111111111" width="2.4957628032327106"/>
	</edge>
	<edge from="63" function="normal" id="357" length="23.646153772857424" numLanes="1" priority="1" speed="36.11111111111111" spreadType="center" to="64">
		<lane allow="moped bicycle pedestrian custom1 trailer evehicle rail_urban ship private vip custom2 authority delivery rail_electric taxi tram army hov coach motorcycle passenger rail emergency" index="0" length="23.646153772857424" shape="97.39015,-162.64724999999999 94.03139999999999,-163.90115 75.11635,-170.58425" speed="36.11111111111111" width="2.498829650056189"/>
	</edge>
	<edge from="65" function="normal" id="358" length="23.692808967797273" numLanes="1" priority="1" speed="36.11111111111111" spreadType="center" to="66">
		<lane allow="moped bicycle pedestrian custom1 trailer evehicle rail_urban ship private vip custom2 authority delivery rail_electric taxi tram army hov coach motorcycle passenger rail emergency" index="0" length="23.692808967797273" shape="75.96674999999999,-172.9346 94.8956,-166.247 98.2842,-164.98115" speed="36.11111111111111" width="2.4990513340065514"/>
	</edge>
	<edge from="67" function="normal" id="359" length="23.10910428878747" numLanes="1" priority="1" speed="36.11111111111111" spreadType="center" to="68">
		<lane allow="moped bicycle pedestrian custom1 trailer evehicle rail_urban ship private vip custom2 authority delivery rail_electric taxi tram army hov coach motorcycle passenger rail emergency" index="0" length="23.10910428878747" shape="133.57670000000002,-148.6155 121.46655000000001,-152.8458 111.85114999999999,-156.48590000000002" speed="36.11111111111111" width="2.4997562381160354"/>
	</edge>
	<edge from="69" function="normal" id="360" length="22.978729412304308" numLanes="1" priority="1" speed="36.11111111111111" spreadType="center" to="70">
		<lane allow="moped bicycle pedestrian custom1 trailer evehicle rail_urban ship private vip custom2 authority delivery rail_electric taxi tram army hov coach motorcycle passenger rail emergency" index="0" length="22.978729412304308" shape="112.78784999999999,-158.8028 122.3355,-155.18995 134.3914,-150.9783" speed="36.11111111111111" width="2.4985717920443835"/>
	</edge>
	<edge from="71" function="normal" id="361" length="93.16374013330912" numLanes="1" priority="1" speed="36.11111111111111" spreadType="center" to="72">
		<lane allow="moped bicycle pedestrian custom1 trailer evehicle rail_urban ship private truck vip custom2 authority delivery rail_electric taxi tram army hov coach motorcycle passenger bus rail emergency" index="0" length="93.16374013330912" shape="0.8095,-197.09199999999998 -43.06725,-212.7006 -86.96549999999999,-228.3175" speed="36.11111111111111" width="2.499997113998336"/>
	</edge>
	<edge from="73" function="normal" id="362" length="93.18570220700028" numLanes="1" priority="1" speed="36.11111111111111" spreadType="center" to="74">
		<lane allow="moped bicycle pedestrian custom1 trailer evehicle rail_urban ship private truck vip custom2 authority delivery rail_electric taxi tram army hov coach motorcycle passenger bus rail emergency" index="0" length="93.18570220700028" shape="-86.12755,-230.6729 -42.229299999999995,-215.05599999999998 1.66795,-199.4395" speed="36.11111111111111" width="2.4992401345208894"/>
	</edge>
	<edge from="75" function="normal" id="363" length="155.1272783403873" numLanes="1" priority="1" speed="36.11111111111111" spreadType="center" to="76">
		<lane allow="moped bicycle pedestrian custom1 trailer evehicle rail_urban ship private vip custom2 authority delivery rail_electric taxi tram army hov coach motorcycle passenger rail emergency" index="0" length="155.1272783403873" shape="147.08135,-44.096000000000004 146.08105,-44.11465 131.08735000000001,-44.886 126.0835,-44.90285 122.09129999999999,-44.6138 118.63669999999999,-44.04 115.7416,-43.24785 112.9521,-42.1408 110.31655,-40.70565 107.88159999999999,-38.95215 106.0766,-37.2218 104.51570000000001,-35.26805 103.19855,-33.1419 101.9072,-30.4324 100.71674999999999,-27.13875 99.51830000000001,-22.7976 97.83234999999999,-15.48225 96.17295,-9.19215 93.92695,-0.4686 91.92750000000001,8.827300000000001 90.10220000000001,19.177100000000003 88.3965,31.0665 85.4373,55.914699999999996 83.39305,71.80144999999999" speed="36.11111111111111" width="2.498369478279788"/>
	</edge>
	<edge from="77" function="normal" id="364" length="158.72583581604368" numLanes="1" priority="1" speed="36.11111111111111" spreadType="center" to="78">
		<lane allow="moped bicycle pedestrian custom1 trailer evehicle rail_urban ship private vip custom2 authority delivery rail_electric taxi tram army hov coach motorcycle passenger rail emergency" index="0" length="158.72583581604368" shape="80.91884999999999,71.45255 82.9808,55.399950000000004 85.98195,30.253 87.72875,18.191850000000002 89.606,7.68215 91.66675000000001,-1.7639 93.9733,-10.5967 95.60895,-16.96735 97.3455,-24.3836 98.65424999999999,-28.836 99.98345,-32.24345 101.43125,-35.0591 102.90715,-37.282799999999995 104.63925,-39.3264 106.62125,-41.1405 109.23765,-42.9728 112.04585,-44.472849999999994 115.00195,-45.63445 118.05605,-46.470349999999996 121.6682,-47.0797 125.81110000000001,-47.393950000000004 130.9534,-47.390950000000004 146.1317,-46.6139 147.11509999999998,-46.59495" speed="36.11111111111111" width="2.4971388787970916"/>
	</edge>
	<edge from="79" function="normal" id="365" length="102.84836260460108" numLanes="1" priority="1" speed="36.11111111111111" spreadType="center" to="80">
		<lane allow="moped bicycle pedestrian custom1 trailer evehicle rail_urban ship private truck vip custom2 authority delivery rail_electric taxi tram army hov coach motorcycle passenger bus rail emergency" index="0" length="102.84836260460108" shape="-81.4289,142.91559999999998 -52.6065,100.33035000000001 -23.78095,57.74225" speed="36.11111111111111" width="2.499654156078398"/>
	</edge>
	<edge from="81" function="normal" id="366" length="102.88833223862504" numLanes="1" priority="1" speed="36.11111111111111" spreadType="center" to="82">
		<lane allow="moped bicycle pedestrian custom1 trailer evehicle rail_urban ship private truck vip custom2 authority delivery rail_electric taxi tram army hov coach motorcycle passenger bus rail emergency" index="0" length="102.88833223862504" shape="-21.70645,59.1363 -50.53615,101.73165 -79.3771,144.34255000000002" speed="36.11111111111111" width="2.498613825704165"/>
	</edge>
	<edge from="83" function="normal" id="367" length="240.1460170961712" numLanes="1" priority="1" speed="36.11111111111111" spreadType="center" to="84">
		<lane allow="moped bicycle pedestrian custom1 trailer evehicle rail_urban ship private truck vip custom2 authority delivery rail_electric taxi tram army hov coach motorcycle passenger bus rail emergency" index="0" length="240.1460170961712" shape="-167.51965,-3.41935 -127.61765,-116.67985 -87.7222,-229.91985" speed="36.11111111111111" width="2.499551771818301"/>
	</edge>
	<edge from="85" function="normal" id="368" length="240.10540698343402" numLanes="1" priority="1" speed="36.11111111111111" spreadType="center" to="86">
		<lane allow="moped bicycle pedestrian custom1 trailer evehicle rail_urban ship private truck vip custom2 authority delivery rail_electric taxi tram army hov coach motorcycle passenger bus rail emergency" index="0" length="240.10540698343402" shape="-85.36755,-229.07985000000002 -125.25909999999999,-115.85105 -165.15235,-2.61795" speed="36.11111111111111" width="2.499622711530681"/>
	</edge>
	<edge from="87" function="normal" id="369" length="30.685517431511407" numLanes="1" priority="1" speed="36.11111111111111" spreadType="center" to="88">
		<lane allow="moped bicycle pedestrian custom1 trailer evehicle rail_urban ship private truck vip custom2 authority delivery rail_electric taxi tram army hov coach motorcycle passenger bus rail emergency" index="0" length="30.685517431511407" shape="70.11015,-181.62335000000002 74.98355,-196.1834 79.85025,-210.72199999999998" speed="36.11111111111111" width="2.4993093165912934"/>
	</edge>
	<edge from="89" function="normal" id="370" length="30.687400334034646" numLanes="1" priority="1" speed="36.11111111111111" spreadType="center" to="90">
		<lane allow="moped bicycle pedestrian custom1 trailer evehicle rail_urban ship private truck vip custom2 authority delivery rail_electric taxi tram army hov coach motorcycle passenger bus rail emergency" index="0" length="30.687400334034646" shape="82.22095,-209.9284 77.35425,-195.38979999999998 72.47925000000001,-180.8283" speed="36.11111111111111" width="2.4994665770920013"/>
	</edge>
	<edge from="91" function="normal" id="371" length="25.69262310183096" numLanes="1" priority="1" speed="36.11111111111111" spreadType="center" to="92">
		<lane allow="moped bicycle pedestrian custom1 trailer evehicle rail_urban ship private truck vip custom2 authority delivery rail_electric taxi tram army hov coach motorcycle passenger bus rail emergency" index="0" length="25.69262310183096" shape="156.95875,-38.86935 158.7569,-26.14085 160.55175,-13.4292" speed="36.11111111111111" width="2.4999510815213757"/>
	</edge>
	<edge from="93" function="normal" id="372" length="25.676544840284194" numLanes="1" priority="1" speed="36.11111111111111" spreadType="center" to="94">
		<lane allow="moped bicycle pedestrian custom1 trailer evehicle rail_urban ship private truck vip custom2 authority delivery rail_electric taxi tram army hov coach motorcycle passenger bus rail emergency" index="0" length="25.676544840284194" shape="158.0763,-13.07965 156.28145,-25.7913 154.4864,-38.504000000000005" speed="36.11111111111111" width="2.4983057699168874"/>
	</edge>
	<edge from="95" function="normal" id="373" length="79.05013976892641" numLanes="1" priority="1" speed="36.11111111111111" spreadType="center" to="96">
		<lane allow="moped bicycle pedestrian custom1 trailer evehicle rail_urban ship private truck vip custom2 authority delivery rail_electric taxi tram army hov coach motorcycle passenger bus rail emergency" index="0" length="79.05013976892641" shape="149.83265,-131.5898 152.6583,-92.17095 155.48430000000002,-52.74195" speed="36.11111111111111" width="2.4992618690325377"/>
	</edge>
	<edge from="97" function="normal" id="374" length="79.04158662697242" numLanes="1" priority="1" speed="36.11111111111111" spreadType="center" to="98">
		<lane allow="moped bicycle pedestrian custom1 trailer evehicle rail_urban ship private truck vip custom2 authority delivery rail_electric taxi tram army hov coach motorcycle passenger bus rail emergency" index="0" length="79.04158662697242" shape="152.99009999999998,-52.5801 150.16469999999998,-91.99225 147.3388,-131.4194" speed="36.11111111111111" width="2.499670802325775"/>
	</edge>
	<edge from="99" function="normal" id="375" length="230.866560487337" numLanes="1" priority="1" speed="36.11111111111111" spreadType="center" to="100">
		<lane allow="moped bicycle pedestrian custom1 trailer evehicle rail_urban ship private truck vip custom2 authority delivery rail_electric taxi tram army hov coach motorcycle passenger bus rail emergency" index="0" length="230.866560487337" shape="-15.525850000000002,44.66165 42.46695,-55.12225 100.48169999999999,-154.942" speed="36.11111111111111" width="2.499311113086968"/>
	</edge>
	<edge from="101" function="normal" id="376" length="230.875597584091" numLanes="1" priority="1" speed="36.11111111111111" spreadType="center" to="102">
		<lane allow="moped bicycle pedestrian custom1 trailer evehicle rail_urban ship private truck vip custom2 authority delivery rail_electric taxi tram army hov coach motorcycle passenger bus rail emergency" index="0" length="230.875597584091" shape="102.64349999999999,-153.6881 44.62845,-53.866 -13.3687,45.9233" speed="36.11111111111111" width="2.4994297989741585"/>
	</edge>