<!-- generated on Tue Feb  9 22:18:17 2021 by Eclipse SUMO netconvert Version 1.8.0
<configuration xmlns:xsi="http://www.w3.org/2001/XMLSchema-instance" xsi:noNamespaceSchemaLocation="http://sumo.dlr.de/xsd/netconvertConfiguration.xsd">

    <input>
        <node-files value="./converted_scenarios/scenario-factory/FRA_Miramas-1_1_I-1-1/FRA_Miramas-1_1_I-1-1.nod.xml"/>
        <edge-files value="./converted_scenarios/scenario-factory/FRA_Miramas-1_1_I-1-1/FRA_Miramas-1_1_I-1-1.edg.xml"/>
        <connection-files value="./converted_scenarios/scenario-factory/FRA_Miramas-1_1_I-1-1/FRA_Miramas-1_1_I-1-1.con.xml"/>
        <tllogic-files value="./converted_scenarios/scenario-factory/FRA_Miramas-1_1_I-1-1/FRA_Miramas-1_1_I-1-1.tll.xml"/>
        <type-files value="/home/zen/commonroad-interactive-benchmarks/install/commonroad-map-tool/crmapconverter/sumo_map/templates/DEU.typ.xml"/>
    </input>

    <output>
        <output-file value="./converted_scenarios/scenario-factory/FRA_Miramas-1_1_I-1-1/FRA_Miramas-1_1_I-1-1.net.xml"/>
    </output>

    <processing>
        <geometry.remove.keep-edges.explicit value="true"/>
        <geometry.avoid-overlap value="true"/>
        <offset.disable-normalization value="true"/>
    </processing>

    <junctions>
        <no-turnarounds value="true"/>
        <junctions.internal-link-detail value="20"/>
    </junctions>

    <report>
        <aggregate-warnings value="5"/>
    </report>

    <random_number>
        <seed value="1234"/>
    </random_number>

</configuration>
--><net xmlns:xsi="http://www.w3.org/2001/XMLSchema-instance" version="1.6" junctionCornerDetail="5" junctionLinkDetail="20" limitTurnSpeed="5.50" xsi:noNamespaceSchemaLocation="http://sumo.dlr.de/xsd/net_file.xsd">

    <location netOffset="0.00,0.00" convBoundary="148.55,204.72,260.53,350.43" origBoundary="148.55,204.72,260.53,350.43" projParameter="!"/>

    <type id="highway.bridleway" priority="1" speed="2.78" allow="pedestrian" oneway="1" width="2.00"/>
    <type id="highway.bus_guideway" priority="1" speed="27.78" allow="bus" oneway="1"/>
    <type id="highway.cycleway" priority="1" speed="8.33" allow="bicycle" oneway="0" width="1.00"/>
    <type id="highway.footway" priority="1" speed="2.78" allow="pedestrian" oneway="1" width="2.00"/>
    <type id="highway.ford" priority="1" speed="2.78" allow="army" oneway="0"/>
    <type id="highway.living_street" priority="2" speed="2.78" disallow="tram rail_urban rail rail_electric rail_fast ship" oneway="0"/>
    <type id="highway.motorway" priority="14" speed="39.44" allow="private emergency authority army vip passenger hov taxi bus coach delivery truck trailer motorcycle evehicle custom1 custom2" oneway="1"/>
    <type id="highway.motorway_link" priority="9" speed="22.22" allow="private emergency authority army vip passenger hov taxi bus coach delivery truck trailer motorcycle evehicle custom1 custom2" oneway="1"/>
    <type id="highway.path" priority="1" speed="2.78" allow="pedestrian bicycle" oneway="0" width="2.00"/>
    <type id="highway.pedestrian" priority="1" speed="2.78" allow="pedestrian" oneway="1" width="2.00"/>
    <type id="highway.primary" priority="12" speed="27.78" disallow="pedestrian tram rail_urban rail rail_electric rail_fast ship" oneway="0"/>
    <type id="highway.primary_link" priority="7" speed="22.22" disallow="pedestrian tram rail_urban rail rail_electric rail_fast ship" oneway="0"/>
    <type id="highway.raceway" priority="15" speed="83.33" allow="vip" oneway="0"/>
    <type id="highway.residential" priority="3" speed="13.89" disallow="pedestrian tram rail_urban rail rail_electric rail_fast ship" oneway="0"/>
    <type id="highway.secondary" priority="11" speed="27.78" disallow="pedestrian tram rail_urban rail rail_electric rail_fast ship" oneway="0"/>
    <type id="highway.secondary_link" priority="6" speed="22.22" disallow="pedestrian tram rail_urban rail rail_electric rail_fast ship" oneway="0"/>
    <type id="highway.service" priority="1" speed="5.56" allow="pedestrian delivery bicycle" oneway="0"/>
    <type id="highway.stairs" priority="1" speed="1.39" allow="pedestrian" oneway="1" width="2.00"/>
    <type id="highway.step" priority="1" speed="1.39" allow="pedestrian" oneway="1" width="2.00"/>
    <type id="highway.steps" priority="1" speed="1.39" allow="pedestrian" oneway="1" width="2.00"/>
    <type id="highway.tertiary" priority="10" speed="22.22" disallow="pedestrian tram rail_urban rail rail_electric rail_fast ship" oneway="0"/>
    <type id="highway.tertiary_link" priority="5" speed="22.22" disallow="pedestrian tram rail_urban rail rail_electric rail_fast ship" oneway="0"/>
    <type id="highway.track" priority="1" speed="5.56" allow="pedestrian motorcycle moped bicycle" oneway="0"/>
    <type id="highway.trunk" priority="13" speed="27.78" disallow="pedestrian bicycle tram rail_urban rail rail_electric rail_fast ship" oneway="0"/>
    <type id="highway.trunk_link" priority="8" speed="22.22" disallow="pedestrian bicycle tram rail_urban rail rail_electric rail_fast ship" oneway="0"/>
    <type id="highway.unclassified" priority="4" speed="13.89" disallow="pedestrian tram rail_urban rail rail_electric rail_fast ship" oneway="0"/>
    <type id="highway.unsurfaced" priority="1" speed="8.33" disallow="tram rail_urban rail rail_electric rail_fast ship" oneway="0"/>
    <type id="railway.highspeed" priority="21" speed="69.44" allow="rail_fast" oneway="1"/>
    <type id="railway.light_rail" priority="19" speed="27.78" allow="rail_urban" oneway="1"/>
    <type id="railway.preserved" priority="16" speed="27.78" allow="rail" oneway="1"/>
    <type id="railway.rail" priority="20" speed="44.44" allow="rail" oneway="1"/>
    <type id="railway.subway" priority="18" speed="27.78" allow="rail_urban" oneway="1"/>
    <type id="railway.tram" priority="17" speed="13.89" allow="tram" oneway="1"/>

    <edge id=":16_0" function="internal">
        <lane id=":16_0_0" index="0" disallow="pedestrian tram rail_urban rail rail_electric rail_fast ship" speed="10.92" length="30.24" width="3.50" shape="210.44,286.91 209.04,285.19 207.47,283.58 205.75,282.15 204.81,281.53 203.84,280.98 202.82,280.51 201.76,280.14 200.67,279.88 199.56,279.73 198.44,279.69 197.32,279.77 196.21,279.95 195.13,280.22 194.07,280.58 192.03,281.52 190.11,282.68 188.30,284.00 185.77,286.22 184.97,287.00"/>
    </edge>
    <edge id=":16_1" function="internal">
        <lane id=":16_1_0" index="0" disallow="pedestrian tram rail_urban rail rail_electric rail_fast ship" speed="13.19" length="35.46" width="3.50" shape="210.44,286.91 208.41,284.03 206.58,280.98 205.03,277.75 204.19,275.45 203.56,273.08 203.19,270.64 203.11,268.14 203.37,265.64 203.98,263.19 204.91,260.86 206.12,258.69 207.57,256.68 209.17,254.87"/>
    </edge>
    <edge id=":16_2" function="internal">
        <lane id=":16_2_0" index="0" disallow="pedestrian tram rail_urban rail rail_electric rail_fast ship" speed="12.25" length="30.49" width="3.50" shape="211.70,257.29 210.31,258.87 209.08,260.58 208.07,262.42 207.31,264.39 206.84,266.44 206.65,268.53 206.75,270.63 207.10,272.71 207.66,274.73 208.41,276.70 209.79,279.54 211.42,282.24 213.23,284.80"/>
    </edge>
    <edge id=":16_3" function="internal">
        <lane id=":16_3_0" index="0" disallow="pedestrian tram rail_urban rail rail_electric rail_fast ship" speed="36.11" length="39.97" width="3.50" shape="211.70,257.29 205.84,263.59 190.89,280.76 185.33,286.65 184.97,287.00"/>
    </edge>
    <edge id=":16_4" function="internal">
        <lane id=":16_4_0" index="0" disallow="pedestrian tram rail_urban rail rail_electric rail_fast ship" speed="36.11" length="39.87" width="3.50" shape="180.02,282.06 186.57,275.77 203.06,260.86 209.17,254.87"/>
    </edge>
    <edge id=":16_5" function="internal">
        <lane id=":16_5_0" index="0" disallow="pedestrian tram rail_urban rail rail_electric rail_fast ship" speed="11.94" length="36.37" width="3.50" shape="182.49,284.53 183.43,283.62 186.32,281.10 188.45,279.55 190.73,278.19 193.16,277.09 194.48,276.65 195.83,276.32 197.21,276.12 198.62,276.04 200.03,276.11 201.43,276.31 202.80,276.66 204.11,277.14 205.37,277.72 206.57,278.41 207.72,279.19 209.75,280.89 211.59,282.79 213.23,284.80"/>
    </edge>
    <edge id=":17_0" function="internal">
        <lane id=":17_0_0" index="0" disallow="pedestrian tram rail_urban rail rail_electric rail_fast ship" speed="36.11" length="3.19" width="3.50" shape="171.71,294.91 174.06,292.76"/>
    </edge>
    <edge id=":17_1" function="internal">
        <lane id=":17_1_0" index="0" disallow="pedestrian tram rail_urban rail rail_electric rail_fast ship" speed="36.11" length="3.02" width="3.50" shape="169.45,292.32 171.63,290.23"/>
    </edge>
    <edge id=":9_0" function="internal">
        <lane id=":9_0_0" index="0" disallow="pedestrian tram rail_urban rail rail_electric rail_fast ship" speed="36.11" length="0.10" width="3.50" shape="175.34,296.38 175.34,296.38"/>
    </edge>

    <edge id="20870" from="11" to="16" priority="3" type="highway.residential" spreadType="center" length="70.02" shape="260.53,207.14 203.33,277.04">
        <lane id="20870_0" index="0" disallow="pedestrian tram rail_urban rail rail_electric rail_fast ship" speed="36.11" length="70.02" width="3.50" customShape="1" shape="260.53,207.14 249.00,218.99 211.68,257.31"/>
    </edge>
    <edge id="20871" from="16" to="3" priority="3" type="highway.residential" spreadType="center" length="70.00" shape="200.63,274.82 258.01,204.72">
        <lane id="20871_0" index="0" disallow="pedestrian tram rail_urban rail rail_electric rail_fast ship" speed="36.11" length="70.00" width="3.50" customShape="1" shape="209.17,254.87 246.49,216.55 258.01,204.72"/>
    </edge>
    <edge id="21341" from="16" to="9" priority="3" type="highway.residential" spreadType="center" length="13.44" shape="203.07,277.29 175.34,296.38">
        <lane id="21341_0" index="0" disallow="pedestrian tram rail_urban rail rail_electric rail_fast ship" speed="36.11" length="13.44" width="3.50" customShape="1" shape="184.97,287.00 183.51,288.47 175.34,296.38"/>
    </edge>
    <edge id="21343" from="17" to="16" priority="3" type="highway.residential" spreadType="center" length="11.71" shape="171.76,292.55 200.31,272.84">
        <lane id="21343_0" index="0" disallow="pedestrian tram rail_urban rail rail_electric rail_fast ship" speed="36.11" length="11.71" width="3.50" customShape="1" shape="171.63,290.23 178.57,283.51 180.02,282.06"/>
        <lane id="21343_1" index="1" disallow="pedestrian tram rail_urban rail rail_electric rail_fast ship" speed="36.11" length="11.79" width="3.50" customShape="1" shape="174.06,292.76 181.05,285.98 182.50,284.53"/>
    </edge>
    <edge id="21538" from="16" to="6" priority="3" type="highway.residential" spreadType="center" length="70.00" shape="203.53,275.06 241.71,348.19">
        <lane id="21538_0" index="0" disallow="pedestrian tram rail_urban rail rail_electric rail_fast ship" speed="36.11" length="70.00" width="3.50" customShape="1" shape="213.23,284.80 213.85,285.63 217.33,290.61 221.35,297.05 225.05,303.68 228.90,311.38 233.29,321.06 236.13,328.11 238.27,334.33 240.06,340.66 241.61,347.58 241.71,348.19"/>
    </edge>
    <edge id="21539" from="10" to="16" priority="3" type="highway.residential" spreadType="center" length="70.01" shape="238.55,350.43 200.43,276.67">
        <lane id="21539_0" index="0" disallow="pedestrian tram rail_urban rail rail_electric rail_fast ship" speed="36.11" length="70.01" width="3.50" customShape="1" shape="238.55,350.43 238.25,348.61 236.74,341.83 235.00,335.62 232.92,329.52 230.14,322.60 225.81,313.04 222.02,305.45 218.39,298.93 214.44,292.60 211.03,287.70 210.43,286.90"/>
    </edge>
    <edge id="22034" from="9" to="12" priority="3" type="highway.residential" spreadType="center" length="30.14">
        <lane id="22034_0" index="0" disallow="pedestrian tram rail_urban rail rail_electric rail_fast ship" speed="36.11" length="30.14" width="3.50" customShape="1" shape="175.34,296.38 172.10,299.22 167.81,302.47 163.32,305.44 157.73,308.68 151.98,311.62 150.04,312.54"/>
    </edge>
    <edge id="22503" from="18" to="17" priority="3" type="highway.residential" spreadType="center" length="27.03">
        <lane id="22503_0" index="0" disallow="pedestrian tram rail_urban rail rail_electric rail_fast ship" speed="36.11" length="27.03" width="3.50" customShape="1" shape="148.55,309.37 150.77,308.10 154.48,305.40 160.36,300.52 169.07,292.67 169.45,292.32"/>
    </edge>
    <edge id="22504" from="18" to="17" priority="3" type="highway.residential" spreadType="center" length="27.40">
        <lane id="22504_0" index="0" disallow="pedestrian tram rail_urban rail rail_electric rail_fast ship" speed="36.11" length="27.40" width="3.50" customShape="1" shape="148.55,309.37 150.44,308.48 156.02,305.63 161.42,302.51 165.74,299.65 169.86,296.53 171.71,294.91"/>
    </edge>

    <junction id="10" type="dead_end" x="238.55" y="350.43" incLanes="" intLanes="" shape="240.28,350.14 236.83,350.72" rightOfWay="edgePriority"/>
    <junction id="11" type="dead_end" x="260.53" y="207.14" incLanes="" intLanes="" shape="259.28,205.92 261.79,208.36" rightOfWay="edgePriority"/>
    <junction id="12" type="dead_end" x="150.04" y="312.54" incLanes="22034_0" intLanes="" shape="150.79,314.12 149.29,310.95" rightOfWay="edgePriority"/>
    <junction id="16" type="priority" x="202.00" y="275.90" incLanes="21539_0 20870_0 21343_0 21343_1" intLanes=":16_0_0 :16_1_0 :16_2_0 :16_3_0 :16_4_0 :16_5_0" shape="209.03,287.95 214.63,283.75 211.41,278.82 209.37,274.18 208.50,269.83 208.80,265.77 210.28,262.01 212.93,258.53 207.92,253.65 178.78,280.82 186.21,288.24 190.50,284.57 194.60,282.35 198.50,281.58 202.20,282.25 205.71,284.38">
        <request index="0" response="001000" foes="001000" cont="0"/>
        <request index="1" response="111000" foes="111000" cont="0"/>
        <request index="2" response="000000" foes="100000" cont="0"/>
        <request index="3" response="000000" foes="100011" cont="0"/>
        <request index="4" response="000000" foes="000010" cont="0"/>
        <request index="5" response="001100" foes="001110" cont="0"/>
    </junction>
    <junction id="17" type="priority" x="171.76" y="292.55" incLanes="22504_0 22503_0" intLanes=":17_0_0 :17_1_0" shape="175.27,294.03 170.42,288.97 168.29,291.00 172.86,296.23">
        <request index="0" response="00" foes="00" cont="0"/>
        <request index="1" response="00" foes="00" cont="0"/>
    </junction>
    <junction id="18" type="dead_end" x="148.55" y="309.37" incLanes="" intLanes="" shape="149.30,310.95 147.81,307.79 149.42,310.89 147.68,307.85"/>
    <junction id="3" type="dead_end" x="258.01" y="204.72" incLanes="20871_0" intLanes="" shape="256.75,203.50 259.26,205.94" rightOfWay="edgePriority"/>
    <junction id="6" type="dead_end" x="241.71" y="348.19" incLanes="21538_0" intLanes="" shape="243.44,347.90 239.99,348.49" rightOfWay="edgePriority"/>
    <junction id="9" type="priority" x="175.34" y="296.38" incLanes="21341_0" intLanes=":9_0_0" shape="176.59,297.61 174.16,295.10 176.46,297.73" rightOfWay="edgePriority">
        <request index="0" response="0" foes="0" cont="0"/>
    </junction>

    <connection from="20870" to="21538" fromLane="0" toLane="0" contPos="-4.00" shape="211.70,257.29 210.31,258.87 209.08,260.58 208.07,262.42 207.31,264.39 206.84,266.44 206.65,268.53 206.75,270.63 207.10,272.71 207.66,274.73 208.41,276.70 209.79,279.54 211.42,282.24 213.23,284.80" via=":16_2_0" dir="r" state="M"/>
    <connection from="20870" to="21341" fromLane="0" toLane="0" contPos="-4.00" shape="211.70,257.29 205.84,263.59 190.89,280.76 185.33,286.65 184.97,287.00" via=":16_3_0" dir="s" state="M"/>
    <connection from="21341" to="22034" fromLane="0" toLane="0" contPos="-4.00" via=":9_0_0" dir="s" state="M"/>
    <connection from="21343" to="20871" fromLane="0" toLane="0" contPos="-4.00" shape="180.02,282.06 186.57,275.77 203.06,260.86 209.17,254.87" via=":16_4_0" dir="s" state="M"/>
    <connection from="21343" to="21538" fromLane="1" toLane="0" contPos="-4.00" shape="182.49,284.53 183.43,283.62 186.32,281.10 188.45,279.55 190.73,278.19 193.16,277.09 194.48,276.65 195.83,276.32 197.21,276.12 198.62,276.04 200.03,276.11 201.43,276.31 202.80,276.66 204.11,277.14 205.37,277.72 206.57,278.41 207.72,279.19 209.75,280.89 211.59,282.79 213.23,284.80" via=":16_5_0" dir="l" state="m"/>
    <connection from="21539" to="21341" fromLane="0" toLane="0" contPos="-4.00" shape="210.44,286.91 209.04,285.19 207.47,283.58 205.75,282.15 204.81,281.53 203.84,280.98 202.82,280.51 201.76,280.14 200.67,279.88 199.56,279.73 198.44,279.69 197.32,279.77 196.21,279.95 195.13,280.22 194.07,280.58 192.03,281.52 190.11,282.68 188.30,284.00 185.77,286.22 184.97,287.00" via=":16_0_0" dir="r" state="m"/>
    <connection from="21539" to="20871" fromLane="0" toLane="0" contPos="-4.00" shape="210.44,286.91 208.41,284.03 206.58,280.98 205.03,277.75 204.19,275.45 203.56,273.08 203.19,270.64 203.11,268.14 203.37,265.64 203.98,263.19 204.91,260.86 206.12,258.69 207.57,256.68 209.17,254.87" via=":16_1_0" dir="l" state="m"/>
    <connection from="22503" to="21343" fromLane="0" toLane="0" contPos="-4.00" via=":17_1_0" dir="s" state="M"/>
    <connection from="22504" to="21343" fromLane="0" toLane="1" contPos="-4.00" via=":17_0_0" dir="s" state="M"/>

    <connection from=":16_0" to="21341" fromLane="0" toLane="0" dir="r" state="M"/>
    <connection from=":16_1" to="20871" fromLane="0" toLane="0" dir="l" state="M"/>
    <connection from=":16_2" to="21538" fromLane="0" toLane="0" dir="r" state="M"/>
    <connection from=":16_3" to="21341" fromLane="0" toLane="0" dir="s" state="M"/>
    <connection from=":16_4" to="20871" fromLane="0" toLane="0" dir="s" state="M"/>
    <connection from=":16_5" to="21538" fromLane="0" toLane="0" dir="l" state="M"/>
    <connection from=":17_0" to="21343" fromLane="0" toLane="1" dir="s" state="M"/>
    <connection from=":17_1" to="21343" fromLane="0" toLane="0" dir="s" state="M"/>
    <connection from=":9_0" to="22034" fromLane="0" toLane="0" dir="s" state="M"/>

</net>