<routes>
	<vehicle depart="0.1" departLane="0" departPos="60.13523652681496" departSpeed="0.50479289" id="33" type="passenger">
		<route edges="21539 20871"/>
	</vehicle>
	<vehicle depart="0.1" departLane="0" departPos="6.873393736843272" departSpeed="1.0388527" id="36" type="passenger">
		<route edges=":16_5 21538"/>
	</vehicle>
	<vehicle depart="0.1" departLane="1" departPos="6.983402080680373" departSpeed="1.8804735" id="311" type="passenger">
		<route edges="21343 21538"/>
	</vehicle>
	<vehicle depart="0.1" departLane="0" departPos="24.538142035540066" departSpeed="2.0339253" id="314" type="passenger">
		<route edges="22504 21343 21538"/>
	</vehicle>
	<vehicle depart="0.1" departLane="0" departPos="7.285578752371055" departSpeed="0.026627409" id="316" type="passenger">
		<route edges="22504 21343"/>
	</vehicle>
	<vehicle depart="0.1" departLane="0" departPos="32.24147820900382" departSpeed="11.161639" id="331" type="passenger">
		<route edges="20870 21341"/>
	</vehicle>
	<vehicle depart="0.1" departLane="0" departPos="14.737888834832178" departSpeed="29.766257" id="336" type="passenger">
		<route edges="22503 21343 20871"/>
	</vehicle>
	<vehicle depart="0.1" departLane="0" departPos="22.68138089153654" departSpeed="12.559299" id="325" type="truck">
		<route edges=":16_3 21341 22034"/>
	</vehicle>
</routes>
