<routes>
	<vehicle depart="0.1" departLane="0" departPos="10.986830898290641" departSpeed="4.6095798" id="311" type="bicycle">
		<route edges=":19_4 95639"/>
	</vehicle>
	<vehicle depart="0.1" departLane="0" departPos="11.463053158138292" departSpeed="5.5695939" id="313" type="bicycle">
		<route edges=":19_4 95639"/>
	</vehicle>
	<vehicle depart="0.1" departLane="0" departPos="72.49770340404837" departSpeed="3.5809089" id="37" type="passenger">
		<route edges="95358 95639"/>
	</vehicle>
	<vehicle depart="0.1" departLane="0" departPos="52.09489063175743" departSpeed="1.3122551" id="314" type="passenger">
		<route edges="95358 96030"/>
	</vehicle>
	<vehicle depart="0.1" departLane="0" departPos="19.797582705545665" departSpeed="4.2712942" id="315" type="passenger">
		<route edges="95636 95357"/>
	</vehicle>
	<vehicle depart="0.1" departLane="0" departPos="43.36367134581948" departSpeed="1.5988551" id="316" type="passenger">
		<route edges="95358 96030"/>
	</vehicle>
	<vehicle depart="0.1" departLane="0" departPos="35.99773645319862" departSpeed="0.64305336" id="317" type="passenger">
		<route edges="95358 96030"/>
	</vehicle>
	<vehicle depart="0.1" departLane="0" departPos="62.548305153007114" departSpeed="1.4954991" id="310" type="truck">
		<route edges="95358 95639"/>
	</vehicle>
</routes>
