<routes>
	<vehicle depart="0.1" departLane="0" departPos="12.90620668494118" departSpeed="5.7178276" id="37" type="bicycle">
		<route edges="459 519 516"/>
	</vehicle>
	<vehicle depart="0.1" departLane="0" departPos="6.165513574631392" departSpeed="0.0" id="312" type="bicycle">
		<route edges="523 10"/>
	</vehicle>
	<vehicle depart="0.1" departLane="0" departPos="69.26456555610051" departSpeed="0.0" id="338" type="bicycle">
		<route edges="8 11"/>
	</vehicle>
	<vehicle depart="0.1" departLane="0" departPos="6.8440608861707615" departSpeed="2.404278" id="365" type="bicycle">
		<route edges="519 516 1492 456 453"/>
	</vehicle>
	<vehicle depart="0.1" departLane="0" departPos="11.501975885798409" departSpeed="0.0017945248" id="336" type="bus">
		<route edges="11 14"/>
	</vehicle>
	<vehicle depart="0.1" departLane="0" departPos="98.74418799129957" departSpeed="14.281365" id="360" type="bus">
		<route edges="457 1433 517 1497"/>
	</vehicle>
	<vehicle depart="0.1" departLane="0" departPos="62.5458550181465" departSpeed="0.021372367" id="31" type="passenger">
		<route edges="64 463"/>
	</vehicle>
	<vehicle depart="0.1" departLane="0" departPos="10.002926176378764" departSpeed="8.5416245" id="32" type="passenger">
		<route edges="349"/>
	</vehicle>
	<vehicle depart="0.1" departLane="0" departPos="55.560425615192386" departSpeed="1.2371255e-05" id="34" type="passenger">
		<route edges="64 463"/>
	</vehicle>
	<vehicle depart="0.1" departLane="0" departPos="30.976881050317658" departSpeed="0.00010739994" id="39" type="passenger">
		<route edges="459 519"/>
	</vehicle>
	<vehicle depart="0.1" departLane="0" departPos="61.0940025883496" departSpeed="1.0038285e-05" id="313" type="passenger">
		<route edges="350 11"/>
	</vehicle>
	<vehicle depart="0.1" departLane="0" departPos="17.813376755416407" departSpeed="9.5393821" id="315" type="passenger">
		<route edges="10 7"/>
	</vehicle>
	<vehicle depart="0.1" departLane="0" departPos="16.92446863091339" departSpeed="0.0" id="316" type="passenger">
		<route edges="14 516 1492 456"/>
	</vehicle>
	<vehicle depart="0.1" departLane="0" departPos="18.598043807851987" departSpeed="9.8183984e-05" id="318" type="passenger">
		<route edges="11 14"/>
	</vehicle>
	<vehicle depart="0.1" departLane="0" departPos="11.664863778147492" departSpeed="0.0" id="320" type="passenger">
		<route edges="523 10"/>
	</vehicle>
	<vehicle depart="0.1" departLane="0" departPos="69.96695114343457" departSpeed="0.434" id="322" type="passenger">
		<route edges="64 459 519"/>
	</vehicle>
	<vehicle depart="0.1" departLane="0" departPos="54.13448041280319" departSpeed="0.00012889871" id="324" type="passenger">
		<route edges="350 11"/>
	</vehicle>
	<vehicle depart="0.1" departLane="0" departPos="11.483310646587347" departSpeed="11.510245" id="327" type="passenger">
		<route edges=":51_2 10 7"/>
	</vehicle>
	<vehicle depart="0.1" departLane="0" departPos="46.77473380892582" departSpeed="0.00088925851" id="328" type="passenger">
		<route edges="350 11"/>
	</vehicle>
	<vehicle depart="0.1" departLane="0" departPos="5.7898825055581575" departSpeed="1.7611708e-05" id="329" type="passenger">
		<route edges="14 516"/>
	</vehicle>
	<vehicle depart="0.1" departLane="0" departPos="25.564658156925752" departSpeed="0.0" id="330" type="passenger">
		<route edges="11 14"/>
	</vehicle>
	<vehicle depart="0.1" departLane="0" departPos="12.564725439243116" departSpeed="0.0" id="331" type="passenger">
		<route edges="519 516"/>
	</vehicle>
	<vehicle depart="0.1" departLane="0" departPos="48.43372936616409" departSpeed="0.00011414598" id="334" type="passenger">
		<route edges="64 463"/>
	</vehicle>
	<vehicle depart="0.1" departLane="0" departPos="39.67046614032664" departSpeed="0.0042302849" id="335" type="passenger">
		<route edges="350 11"/>
	</vehicle>
	<vehicle depart="0.1" departLane="0" departPos="5.527842944345663" departSpeed="0.0" id="339" type="passenger">
		<route edges="519 516"/>
	</vehicle>
	<vehicle depart="0.1" departLane="0" departPos="41.161736947677774" departSpeed="0.00067605707" id="343" type="passenger">
		<route edges="64 463"/>
	</vehicle>
	<vehicle depart="0.1" departLane="0" departPos="32.882152181147745" departSpeed="0.013880306" id="345" type="passenger">
		<route edges="350 11"/>
	</vehicle>
	<vehicle depart="0.1" departLane="0" departPos="33.99668464870937" departSpeed="0.0028095286" id="347" type="passenger">
		<route edges="64 463"/>
	</vehicle>
	<vehicle depart="0.1" departLane="0" departPos="69.0320914347889" departSpeed="0.0" id="352" type="passenger">
		<route edges="8 11"/>
	</vehicle>
	<vehicle depart="0.1" departLane="0" departPos="10.204896701731894" departSpeed="9.4195881" id="354" type="passenger">
		<route edges="517 13 10"/>
	</vehicle>
	<vehicle depart="0.1" departLane="0" departPos="26.67484658353052" departSpeed="0.0089704894" id="355" type="passenger">
		<route edges="64 463"/>
	</vehicle>
	<vehicle depart="0.1" departLane="0" departPos="61.5244587767455" departSpeed="0.003629007" id="358" type="passenger">
		<route edges="8 11"/>
	</vehicle>
	<vehicle depart="0.1" departLane="0" departPos="23.861420814814807" departSpeed="0.0014388304" id="359" type="passenger">
		<route edges="459 519"/>
	</vehicle>
	<vehicle depart="0.1" departLane="0" departPos="20.75989476175256" departSpeed="0.090925385" id="361" type="passenger">
		<route edges="350 11"/>
	</vehicle>
	<vehicle depart="0.1" departLane="0" departPos="53.988630201217454" departSpeed="0.033355411" id="363" type="passenger">
		<route edges="8 11"/>
	</vehicle>
	<vehicle depart="0.1" departLane="0" departPos="19.628449083275562" departSpeed="0.024836949" id="364" type="passenger">
		<route edges="64 463"/>
	</vehicle>
	<vehicle depart="0.1" departLane="0" departPos="69.8342328560144" departSpeed="14.365733" id="366" type="passenger">
		<route edges="457 1433 517"/>
	</vehicle>
	<vehicle depart="0.1" departLane="0" departPos="46.49052610103234" departSpeed="0.16066358" id="368" type="passenger">
		<route edges="8 11"/>
	</vehicle>
	<vehicle depart="0.1" departLane="0" departPos="48.57751199281549" departSpeed="14.297963" id="369" type="passenger">
		<route edges="457 1433 517"/>
	</vehicle>
	<vehicle depart="0.1" departLane="0" departPos="12.869481528406366" departSpeed="0.059429343" id="372" type="passenger">
		<route edges="64 463"/>
	</vehicle>
	<vehicle depart="0.1" departLane="0" departPos="13.26512409566198" departSpeed="0.17668168" id="374" type="passenger">
		<route edges="350 11"/>
	</vehicle>
	<vehicle depart="0.1" departLane="0" departPos="32.5688570018991" departSpeed="1.035479" id="375" type="passenger">
		<route edges="8 11"/>
	</vehicle>
	<vehicle depart="0.1" departLane="0" departPos="2.5" departSpeed="10.966169" id="376" type="passenger">
		<route edges=":53_3 457 1433"/>
	</vehicle>
	<vehicle depart="0.1" departLane="0" departPos="6.517362794498374" departSpeed="0.00044433764" id="377" type="passenger">
		<route edges="462 459"/>
	</vehicle>
	<vehicle depart="0.1" departLane="0" departPos="23.70640946422766" departSpeed="1.6363943" id="378" type="passenger">
		<route edges="8 11"/>
	</vehicle>
	<vehicle depart="0.1" departLane="0" departPos="14.442330382644204" departSpeed="2.0774565" id="380" type="passenger">
		<route edges="8 11"/>
	</vehicle>
	<vehicle depart="0.1" departLane="0" departPos="5.921899877512022" departSpeed="0.10500937" id="382" type="passenger">
		<route edges="64 463"/>
	</vehicle>
	<vehicle depart="0.1" departLane="0" departPos="5.931421902319919" departSpeed="0.22725197" id="383" type="passenger">
		<route edges="350 11"/>
	</vehicle>
	<vehicle depart="0.1" departLane="0" departPos="6.134724385906535" departSpeed="1.1880723" id="385" type="passenger">
		<route edges="8 11"/>
	</vehicle>
	<vehicle depart="0.1" departLane="0" departPos="9.989354455155985" departSpeed="0.0" id="33" type="motorcycle">
		<route edges="14 516"/>
	</vehicle>
	<vehicle depart="0.1" departLane="0" departPos="12.718550921509957" departSpeed="9.3485274" id="332" type="motorcycle">
		<route edges=":52_3 349"/>
	</vehicle>
	<vehicle depart="0.1" departLane="0" departPos="12.896532315710395" departSpeed="0.0" id="340" type="motorcycle">
		<route edges="519 516 1492 456 453"/>
	</vehicle>
	<vehicle depart="0.1" departLane="0" departPos="25.669121994358957" departSpeed="0.038251999" id="353" type="motorcycle">
		<route edges="350 11"/>
	</vehicle>
	<vehicle depart="0.1" departLane="0" departPos="38.67198878330878" departSpeed="0.49951235" id="370" type="motorcycle">
		<route edges="8 11"/>
	</vehicle>
	<vehicle depart="0.1" departLane="0" departPos="21.58741278576902" departSpeed="0.0" id="30" type="truck">
		<route edges="523 10"/>
	</vehicle>
	<vehicle depart="0.1" departLane="0" departPos="70.29480594120548" departSpeed="0.0" id="321" type="truck">
		<route edges="350 11"/>
	</vehicle>
	<vehicle depart="0.1" departLane="0" departPos="16.805312112847723" departSpeed="0.012623248" id="362" type="truck">
		<route edges="459 519"/>
	</vehicle>
	<vehicle depart="0.1" departLane="0" departPos="16.527436327270568" departSpeed="0.0" id="371" type="truck">
		<route edges="462 459"/>
	</vehicle>
</routes>
