<routes>
	<vehicle depart="0.1" departLane="0" departPos="63.03116366760105" departSpeed="1.1828889" id="32" type="passenger">
		<route edges="8720 8893"/>
	</vehicle>
	<vehicle depart="0.1" departLane="0" departPos="55.05796018093275" departSpeed="0.43834137" id="34" type="passenger">
		<route edges="8720 8893"/>
	</vehicle>
	<vehicle depart="0.1" departLane="0" departPos="47.631667431359155" departSpeed="0.1019344" id="35" type="passenger">
		<route edges="8720 8893"/>
	</vehicle>
	<vehicle depart="0.1" departLane="0" departPos="23.896049062988805" departSpeed="2.365463" id="329" type="passenger">
		<route edges=":47_5 8893"/>
	</vehicle>
	<vehicle depart="0.1" departLane="0" departPos="68.28301013912333" departSpeed="1.2610433" id="331" type="passenger">
		<route edges="8892 8772 8752"/>
	</vehicle>
	<vehicle depart="0.1" departLane="0" departPos="60.71995088182473" departSpeed="0.56132241" id="337" type="passenger">
		<route edges="8892 8772"/>
	</vehicle>
	<vehicle depart="0.1" departLane="0" departPos="49.28997788635896" departSpeed="1.0300343" id="342" type="passenger">
		<route edges="8892 8772"/>
	</vehicle>
	<vehicle depart="0.1" departLane="0" departPos="22.347588919779586" departSpeed="1.1483619" id="349" type="passenger">
		<route edges="8892 8772"/>
	</vehicle>
</routes>
