<routes>
	<vehicle depart="0.1" departLane="0" departPos="26.888695002009847" departSpeed="0.066564907" id="32" type="passenger">
		<route edges=":18_8 8057"/>
	</vehicle>
	<vehicle depart="0.1" departLane="0" departPos="59.80612755674118" departSpeed="0.084810103" id="34" type="passenger">
		<route edges="8052 8057"/>
	</vehicle>
	<vehicle depart="0.1" departLane="0" departPos="19.578733215196156" departSpeed="0.48403256" id="312" type="passenger">
		<route edges=":18_2 8041"/>
	</vehicle>
	<vehicle depart="0.1" departLane="0" departPos="53.938989618689675" departSpeed="6.2210034" id="317" type="passenger">
		<route edges="8040 8057"/>
	</vehicle>
	<vehicle depart="0.1" departLane="0" departPos="42.3911545386164" departSpeed="2.1735191" id="320" type="passenger">
		<route edges="8040 8051"/>
	</vehicle>
	<vehicle depart="0.1" departLane="0" departPos="26.56794262807982" departSpeed="4.7405236" id="323" type="passenger">
		<route edges="8040 8051"/>
	</vehicle>
	<vehicle depart="0.1" departLane="0" departPos="5.66447557463492" departSpeed="1.165416" id="325" type="passenger">
		<route edges="8054 8051"/>
	</vehicle>
	<vehicle depart="0.1" departLane="0" departPos="13.794236372481079" departSpeed="23.229361" id="333" type="passenger">
		<route edges="8058 8051"/>
	</vehicle>
	<vehicle depart="0.1" departLane="0" departPos="26.123671510148398" departSpeed="1.7373804" id="33" type="motorcycle">
		<route edges=":18_1 8051"/>
	</vehicle>
	<vehicle depart="0.1" departLane="0" departPos="28.672986419166335" departSpeed="7.3762251" id="310" type="truck">
		<route edges=":18_5 8051"/>
	</vehicle>
</routes>
