<!-- generated on Tue Feb  9 22:11:19 2021 by Eclipse SUMO netconvert Version 1.8.0
<configuration xmlns:xsi="http://www.w3.org/2001/XMLSchema-instance" xsi:noNamespaceSchemaLocation="http://sumo.dlr.de/xsd/netconvertConfiguration.xsd">

    <input>
        <node-files value="./converted_scenarios/scenario-factory/FRA_Anglet-1_3_I-1-1/FRA_Anglet-1_3_I-1-1.nod.xml"/>
        <edge-files value="./converted_scenarios/scenario-factory/FRA_Anglet-1_3_I-1-1/FRA_Anglet-1_3_I-1-1.edg.xml"/>
        <connection-files value="./converted_scenarios/scenario-factory/FRA_Anglet-1_3_I-1-1/FRA_Anglet-1_3_I-1-1.con.xml"/>
        <tllogic-files value="./converted_scenarios/scenario-factory/FRA_Anglet-1_3_I-1-1/FRA_Anglet-1_3_I-1-1.tll.xml"/>
        <type-files value="/home/zen/commonroad-interactive-benchmarks/install/commonroad-map-tool/crmapconverter/sumo_map/templates/DEU.typ.xml"/>
    </input>

    <output>
        <output-file value="./converted_scenarios/scenario-factory/FRA_Anglet-1_3_I-1-1/FRA_Anglet-1_3_I-1-1.net.xml"/>
    </output>

    <processing>
        <geometry.remove.keep-edges.explicit value="true"/>
        <geometry.avoid-overlap value="true"/>
        <offset.disable-normalization value="true"/>
    </processing>

    <junctions>
        <no-turnarounds value="true"/>
        <junctions.internal-link-detail value="20"/>
    </junctions>

    <report>
        <aggregate-warnings value="5"/>
    </report>

    <random_number>
        <seed value="1234"/>
    </random_number>

</configuration>
--><net xmlns:xsi="http://www.w3.org/2001/XMLSchema-instance" version="1.6" junctionCornerDetail="5" junctionLinkDetail="20" limitTurnSpeed="5.50" xsi:noNamespaceSchemaLocation="http://sumo.dlr.de/xsd/net_file.xsd">

    <location netOffset="0.00,0.00" convBoundary="347.45,699.58,489.60,878.45" origBoundary="347.45,699.58,489.60,878.45" projParameter="!"/>

    <type id="highway.bridleway" priority="1" speed="2.78" allow="pedestrian" oneway="1" width="2.00"/>
    <type id="highway.bus_guideway" priority="1" speed="27.78" allow="bus" oneway="1"/>
    <type id="highway.cycleway" priority="1" speed="8.33" allow="bicycle" oneway="0" width="1.00"/>
    <type id="highway.footway" priority="1" speed="2.78" allow="pedestrian" oneway="1" width="2.00"/>
    <type id="highway.ford" priority="1" speed="2.78" allow="army" oneway="0"/>
    <type id="highway.living_street" priority="2" speed="2.78" disallow="tram rail_urban rail rail_electric rail_fast ship" oneway="0"/>
    <type id="highway.motorway" priority="14" speed="39.44" allow="private emergency authority army vip passenger hov taxi bus coach delivery truck trailer motorcycle evehicle custom1 custom2" oneway="1"/>
    <type id="highway.motorway_link" priority="9" speed="22.22" allow="private emergency authority army vip passenger hov taxi bus coach delivery truck trailer motorcycle evehicle custom1 custom2" oneway="1"/>
    <type id="highway.path" priority="1" speed="2.78" allow="pedestrian bicycle" oneway="0" width="2.00"/>
    <type id="highway.pedestrian" priority="1" speed="2.78" allow="pedestrian" oneway="1" width="2.00"/>
    <type id="highway.primary" priority="12" speed="27.78" disallow="pedestrian tram rail_urban rail rail_electric rail_fast ship" oneway="0"/>
    <type id="highway.primary_link" priority="7" speed="22.22" disallow="pedestrian tram rail_urban rail rail_electric rail_fast ship" oneway="0"/>
    <type id="highway.raceway" priority="15" speed="83.33" allow="vip" oneway="0"/>
    <type id="highway.residential" priority="3" speed="13.89" disallow="pedestrian tram rail_urban rail rail_electric rail_fast ship" oneway="0"/>
    <type id="highway.secondary" priority="11" speed="27.78" disallow="pedestrian tram rail_urban rail rail_electric rail_fast ship" oneway="0"/>
    <type id="highway.secondary_link" priority="6" speed="22.22" disallow="pedestrian tram rail_urban rail rail_electric rail_fast ship" oneway="0"/>
    <type id="highway.service" priority="1" speed="5.56" allow="pedestrian delivery bicycle" oneway="0"/>
    <type id="highway.stairs" priority="1" speed="1.39" allow="pedestrian" oneway="1" width="2.00"/>
    <type id="highway.step" priority="1" speed="1.39" allow="pedestrian" oneway="1" width="2.00"/>
    <type id="highway.steps" priority="1" speed="1.39" allow="pedestrian" oneway="1" width="2.00"/>
    <type id="highway.tertiary" priority="10" speed="22.22" disallow="pedestrian tram rail_urban rail rail_electric rail_fast ship" oneway="0"/>
    <type id="highway.tertiary_link" priority="5" speed="22.22" disallow="pedestrian tram rail_urban rail rail_electric rail_fast ship" oneway="0"/>
    <type id="highway.track" priority="1" speed="5.56" allow="pedestrian motorcycle moped bicycle" oneway="0"/>
    <type id="highway.trunk" priority="13" speed="27.78" disallow="pedestrian bicycle tram rail_urban rail rail_electric rail_fast ship" oneway="0"/>
    <type id="highway.trunk_link" priority="8" speed="22.22" disallow="pedestrian bicycle tram rail_urban rail rail_electric rail_fast ship" oneway="0"/>
    <type id="highway.unclassified" priority="4" speed="13.89" disallow="pedestrian tram rail_urban rail rail_electric rail_fast ship" oneway="0"/>
    <type id="highway.unsurfaced" priority="1" speed="8.33" disallow="tram rail_urban rail rail_electric rail_fast ship" oneway="0"/>
    <type id="railway.highspeed" priority="21" speed="69.44" allow="rail_fast" oneway="1"/>
    <type id="railway.light_rail" priority="19" speed="27.78" allow="rail_urban" oneway="1"/>
    <type id="railway.preserved" priority="16" speed="27.78" allow="rail" oneway="1"/>
    <type id="railway.rail" priority="20" speed="44.44" allow="rail" oneway="1"/>
    <type id="railway.subway" priority="18" speed="27.78" allow="rail_urban" oneway="1"/>
    <type id="railway.tram" priority="17" speed="13.89" allow="tram" oneway="1"/>

    <edge id=":17_0" function="internal">
        <lane id=":17_0_0" index="0" disallow="pedestrian tram rail_urban rail rail_electric rail_fast ship" speed="11.61" length="29.32" width="3.50" shape="419.87,794.86 417.66,794.62 415.46,794.56 413.28,794.71 411.18,795.11 409.17,795.79 407.31,796.75 405.62,797.99 404.12,799.49 402.83,801.20 401.74,803.07 400.82,805.08 400.07,807.17 399.20,810.46"/>
    </edge>
    <edge id=":17_1" function="internal">
        <lane id=":17_1_0" index="0" disallow="pedestrian tram rail_urban rail rail_electric rail_fast ship" speed="36.11" length="40.51" width="3.50" shape="419.87,794.86 415.77,794.26 379.76,789.18"/>
    </edge>
    <edge id=":17_2" function="internal">
        <lane id=":17_2_0" index="0" disallow="pedestrian tram rail_urban rail rail_electric rail_fast ship" speed="13.94" length="36.31" width="3.50" shape="419.87,794.86 416.36,794.13 414.03,793.39 411.79,792.42 409.65,791.21 407.65,789.76 405.84,788.09 404.23,786.22 402.85,784.19 401.69,782.05 400.73,779.82 399.65,776.41 398.91,772.93 398.46,769.43"/>
    </edge>
    <edge id=":17_3" function="internal">
        <lane id=":17_3_0" index="0" disallow="pedestrian tram rail_urban rail rail_electric rail_fast ship" speed="13.04" length="31.67" width="3.50" shape="401.94,769.06 402.35,772.25 403.00,775.34 403.94,778.36 404.76,780.30 405.76,782.16 406.93,783.91 408.29,785.52 409.83,786.97 411.53,788.22 413.36,789.26 415.29,790.11 417.29,790.76 420.39,791.40"/>
    </edge>
    <edge id=":17_4" function="internal">
        <lane id=":17_4_0" index="0" disallow="pedestrian tram rail_urban rail rail_electric rail_fast ship" speed="36.11" length="41.65" width="3.50" shape="401.95,769.06 402.37,775.34 402.48,781.57 402.24,788.85 401.60,796.10 400.58,803.31 399.20,810.46"/>
    </edge>
    <edge id=":17_5" function="internal">
        <lane id=":17_5_0" index="0" disallow="pedestrian tram rail_urban rail rail_electric rail_fast ship" speed="11.62" length="36.56" width="3.50" shape="401.95,769.06 402.11,771.92 402.06,774.72 401.72,777.51 401.43,778.89 401.03,780.23 400.52,781.54 399.88,782.79 399.12,783.97 398.23,785.06 397.22,786.03 396.10,786.88 394.90,787.60 393.62,788.19 392.30,788.66 390.94,789.02 388.17,789.46 385.36,789.59 382.56,789.48 379.76,789.18"/>
    </edge>
    <edge id=":17_6" function="internal">
        <lane id=":17_6_0" index="0" disallow="pedestrian tram rail_urban rail rail_electric rail_fast ship" speed="10.57" length="30.04" width="3.50" shape="380.22,785.71 382.66,785.97 385.08,786.07 387.46,785.97 389.80,785.60 390.88,785.32 391.94,784.95 392.94,784.48 393.88,783.93 394.74,783.29 395.52,782.55 396.20,781.72 396.80,780.82 397.29,779.84 397.71,778.80 398.03,777.71 398.27,776.61 398.56,774.25 398.61,771.85 398.46,769.43"/>
    </edge>
    <edge id=":17_7" function="internal">
        <lane id=":17_7_0" index="0" disallow="pedestrian tram rail_urban rail rail_electric rail_fast ship" speed="36.11" length="40.57" width="3.50" shape="380.22,785.71 416.27,790.79 420.39,791.40"/>
    </edge>
    <edge id=":17_8" function="internal">
        <lane id=":17_8_0" index="0" disallow="pedestrian tram rail_urban rail rail_electric rail_fast ship" speed="12.17" length="36.35" width="3.50" shape="380.22,785.71 384.04,786.40 386.57,787.08 389.06,787.97 391.47,789.15 393.72,790.62 394.80,791.52 395.79,792.50 396.69,793.58 397.49,794.73 398.18,795.95 398.75,797.23 399.20,798.54 399.54,799.91 399.89,802.57 399.91,805.25 399.66,807.88 399.20,810.46"/>
    </edge>
    <edge id=":17_9" function="internal">
        <lane id=":17_9_0" index="0" disallow="pedestrian tram rail_urban rail rail_electric rail_fast ship" speed="11.17" length="30.44" width="3.50" shape="395.78,809.71 396.18,807.49 396.39,805.24 396.37,802.99 396.06,800.76 395.78,799.66 395.40,798.60 394.94,797.57 394.38,796.59 393.73,795.67 393.00,794.82 392.19,794.03 391.32,793.31 389.43,792.09 387.39,791.11 385.27,790.36 383.09,789.78 379.76,789.18"/>
    </edge>
    <edge id=":17_10" function="internal">
        <lane id=":17_10_0" index="0" disallow="pedestrian tram rail_urban rail rail_electric rail_fast ship" speed="36.11" length="40.52" width="3.50" shape="395.78,809.71 397.13,802.74 398.12,795.71 398.74,788.65 398.98,781.56 398.87,775.49 398.46,769.43"/>
    </edge>
    <edge id=":17_11" function="internal">
        <lane id=":17_11_0" index="0" disallow="pedestrian tram rail_urban rail rail_electric rail_fast ship" speed="12.59" length="34.64" width="3.50" shape="395.78,809.71 396.77,805.99 397.64,803.57 398.71,801.24 400.02,799.03 401.57,796.99 403.40,795.19 405.47,793.68 407.76,792.51 410.19,791.70 412.71,791.23 415.27,791.05 417.84,791.12 420.39,791.40"/>
    </edge>

    <edge id="85600" from="17" to="6" priority="3" type="highway.residential" spreadType="center" length="69.99" shape="401.17,790.31 382.60,878.45">
        <lane id="85600_0" index="0" disallow="pedestrian tram rail_urban rail rail_electric rail_fast ship" speed="36.11" length="69.99" width="3.50" customShape="1" shape="399.20,810.46 396.47,822.73 391.05,845.74 385.25,868.66 382.60,878.45"/>
    </edge>
    <edge id="85601" from="14" to="17" priority="3" type="highway.residential" spreadType="center" length="70.02" shape="379.17,877.71 397.75,789.59">
        <lane id="85601_0" index="0" disallow="pedestrian tram rail_urban rail rail_electric rail_fast ship" speed="36.11" length="70.02" width="3.50" customShape="1" shape="379.17,877.71 381.86,867.77 387.65,844.91 393.05,821.95 395.78,809.70"/>
    </edge>
    <edge id="85603" from="16" to="17" priority="3" type="highway.residential" spreadType="center" length="70.00" shape="393.90,699.58 401.20,789.88">
        <lane id="85603_0" index="0" disallow="pedestrian tram rail_urban rail rail_electric rail_fast ship" speed="36.11" length="70.00" width="3.50" customShape="1" shape="393.90,699.58 395.84,716.81 400.32,753.65 401.95,769.11"/>
    </edge>
    <edge id="85604" from="17" to="3" priority="3" type="highway.residential" spreadType="center" length="70.00" shape="397.71,790.16 390.42,699.89">
        <lane id="85604_0" index="0" disallow="pedestrian tram rail_urban rail rail_electric rail_fast ship" speed="36.11" length="70.00" width="3.50" customShape="1" shape="398.46,769.43 396.84,753.99 392.36,717.12 390.42,699.89"/>
    </edge>
    <edge id="85818" from="17" to="11" priority="3" type="highway.residential" spreadType="center" length="69.99" shape="399.68,788.25 489.60,801.85">
        <lane id="85818_0" index="0" disallow="pedestrian tram rail_urban rail rail_electric rail_fast ship" speed="36.11" length="69.99" width="3.50" customShape="1" shape="420.39,791.40 489.60,801.85"/>
    </edge>
    <edge id="85819" from="15" to="17" priority="3" type="highway.residential" spreadType="center" length="69.99" shape="489.08,805.31 399.16,791.71">
        <lane id="85819_0" index="0" disallow="pedestrian tram rail_urban rail rail_electric rail_fast ship" speed="36.11" length="69.99" width="3.50" customShape="1" shape="489.08,805.31 419.87,794.86"/>
    </edge>
    <edge id="85821" from="13" to="17" priority="3" type="highway.residential" spreadType="center" length="32.61" shape="347.91,781.42 399.74,788.26">
        <lane id="85821_0" index="0" disallow="pedestrian tram rail_urban rail rail_electric rail_fast ship" speed="36.11" length="32.61" width="3.50" customShape="1" shape="347.91,781.42 364.07,783.57 380.24,785.71"/>
    </edge>
    <edge id="85822" from="17" to="8" priority="3" type="highway.residential" spreadType="center" length="32.59" shape="399.28,791.72 347.45,784.89">
        <lane id="85822_0" index="0" disallow="pedestrian tram rail_urban rail rail_electric rail_fast ship" speed="36.11" length="32.59" width="3.50" customShape="1" shape="379.76,789.18 363.61,787.04 347.45,784.89"/>
    </edge>

    <junction id="11" type="dead_end" x="489.60" y="801.85" incLanes="85818_0" intLanes="" shape="489.87,800.12 489.34,803.57" rightOfWay="edgePriority"/>
    <junction id="13" type="dead_end" x="347.91" y="781.42" incLanes="" intLanes="" shape="347.68,783.16 348.14,779.69" rightOfWay="edgePriority"/>
    <junction id="14" type="dead_end" x="379.17" y="877.71" incLanes="" intLanes="" shape="380.86,878.17 377.48,877.25" rightOfWay="edgePriority"/>
    <junction id="15" type="dead_end" x="489.08" y="805.31" incLanes="" intLanes="" shape="489.34,803.58 488.82,807.04" rightOfWay="edgePriority"/>
    <junction id="16" type="dead_end" x="393.90" y="699.58" incLanes="" intLanes="" shape="392.17,699.77 395.64,699.38" rightOfWay="edgePriority"/>
    <junction id="17" type="priority" x="399.46" y="789.98" incLanes="85819_0 85603_0 85821_0 85601_0" intLanes=":17_0_0 :17_1_0 :17_2_0 :17_3_0 :17_4_0 :17_5_0 :17_6_0 :17_7_0 :17_8_0 :17_9_0 :17_10_0 :17_11_0" shape="419.60,796.59 420.65,789.67 416.01,788.46 412.09,786.35 408.90,783.34 406.44,779.42 404.70,774.60 403.68,768.88 396.72,769.61 396.76,774.66 395.70,778.66 393.54,781.58 390.28,783.45 385.91,784.24 380.45,783.98 379.53,790.92 384.96,792.09 389.19,794.03 392.22,796.72 394.04,800.16 394.66,804.36 394.07,809.32 400.91,810.84 402.45,805.85 404.62,801.91 407.42,799.02 410.85,797.17 414.91,796.36">
        <request index="0" response="000000000000" foes="000100010000" cont="0"/>
        <request index="1" response="000000000000" foes="111100110000" cont="0"/>
        <request index="2" response="000011000000" foes="110011110000" cont="0"/>
        <request index="3" response="000010000000" foes="100010000000" cont="0"/>
        <request index="4" response="000110000111" foes="100110000111" cont="0"/>
        <request index="5" response="011110000110" foes="011110000110" cont="0"/>
        <request index="6" response="000000000000" foes="010000000100" cont="0"/>
        <request index="7" response="000000000000" foes="110000111100" cont="0"/>
        <request index="8" response="000000000011" foes="110000110011" cont="0"/>
        <request index="9" response="000000000010" foes="000000100010" cont="0"/>
        <request index="10" response="000111000110" foes="000111100110" cont="0"/>
        <request index="11" response="000110011110" foes="000110011110" cont="0"/>
    </junction>
    <junction id="3" type="dead_end" x="390.42" y="699.89" incLanes="85604_0" intLanes="" shape="388.68,700.09 392.16,699.70" rightOfWay="edgePriority"/>
    <junction id="6" type="dead_end" x="382.60" y="878.45" incLanes="85600_0" intLanes="" shape="384.29,878.91 380.91,878.00" rightOfWay="edgePriority"/>
    <junction id="8" type="dead_end" x="347.45" y="784.89" incLanes="85822_0" intLanes="" shape="347.22,786.63 347.68,783.16" rightOfWay="edgePriority"/>

    <connection from="85601" to="85822" fromLane="0" toLane="0" contPos="-4.00" shape="395.78,809.71 396.18,807.49 396.39,805.24 396.37,802.99 396.06,800.76 395.78,799.66 395.40,798.60 394.94,797.57 394.38,796.59 393.73,795.67 393.00,794.82 392.19,794.03 391.32,793.31 389.43,792.09 387.39,791.11 385.27,790.36 383.09,789.78 379.76,789.18" via=":17_9_0" dir="r" state="m"/>
    <connection from="85601" to="85604" fromLane="0" toLane="0" contPos="-4.00" shape="395.78,809.71 397.13,802.74 398.12,795.71 398.74,788.65 398.98,781.56 398.87,775.49 398.46,769.43" via=":17_10_0" dir="s" state="m"/>
    <connection from="85601" to="85818" fromLane="0" toLane="0" contPos="-4.00" shape="395.78,809.71 396.77,805.99 397.64,803.57 398.71,801.24 400.02,799.03 401.57,796.99 403.40,795.19 405.47,793.68 407.76,792.51 410.19,791.70 412.71,791.23 415.27,791.05 417.84,791.12 420.39,791.40" via=":17_11_0" dir="l" state="m"/>
    <connection from="85603" to="85818" fromLane="0" toLane="0" contPos="-4.00" shape="401.95,769.11 402.35,772.25 403.00,775.34 403.94,778.36 404.76,780.30 405.76,782.16 406.93,783.91 408.29,785.52 409.83,786.97 411.53,788.22 413.36,789.26 415.29,790.11 417.29,790.76 420.39,791.40" via=":17_3_0" dir="r" state="m"/>
    <connection from="85603" to="85600" fromLane="0" toLane="0" contPos="-4.00" shape="401.95,769.11 402.37,775.34 402.48,781.57 402.24,788.85 401.60,796.10 400.58,803.31 399.20,810.46" via=":17_4_0" dir="s" state="m"/>
    <connection from="85603" to="85822" fromLane="0" toLane="0" contPos="-4.00" shape="401.95,769.11 402.11,771.92 402.06,774.72 401.72,777.51 401.43,778.89 401.03,780.23 400.52,781.54 399.88,782.79 399.12,783.97 398.23,785.06 397.22,786.03 396.10,786.88 394.90,787.60 393.62,788.19 392.30,788.66 390.94,789.02 388.17,789.46 385.36,789.59 382.56,789.48 379.76,789.18" via=":17_5_0" dir="l" state="m"/>
    <connection from="85819" to="85600" fromLane="0" toLane="0" contPos="-4.00" shape="419.87,794.86 417.66,794.62 415.46,794.56 413.28,794.71 411.18,795.11 409.17,795.79 407.31,796.75 405.62,797.99 404.12,799.49 402.83,801.20 401.74,803.07 400.82,805.08 400.07,807.17 399.20,810.46" via=":17_0_0" dir="r" state="M"/>
    <connection from="85819" to="85822" fromLane="0" toLane="0" contPos="-4.00" shape="419.87,794.86 415.77,794.26 379.76,789.18" via=":17_1_0" dir="s" state="M"/>
    <connection from="85819" to="85604" fromLane="0" toLane="0" contPos="-4.00" shape="419.87,794.86 416.36,794.13 414.03,793.39 411.79,792.42 409.65,791.21 407.65,789.76 405.84,788.09 404.23,786.22 402.85,784.19 401.69,782.05 400.73,779.82 399.65,776.41 398.91,772.93 398.46,769.43" via=":17_2_0" dir="l" state="m"/>
    <connection from="85821" to="85604" fromLane="0" toLane="0" contPos="-4.00" shape="380.24,785.71 382.66,785.97 385.08,786.07 387.46,785.97 389.80,785.60 390.88,785.32 391.94,784.95 392.94,784.48 393.88,783.93 394.74,783.29 395.52,782.55 396.20,781.72 396.80,780.82 397.29,779.84 397.71,778.80 398.03,777.71 398.27,776.61 398.56,774.25 398.61,771.85 398.46,769.43" via=":17_6_0" dir="r" state="M"/>
    <connection from="85821" to="85818" fromLane="0" toLane="0" contPos="-4.00" shape="380.24,785.71 416.27,790.79 420.39,791.40" via=":17_7_0" dir="s" state="M"/>
    <connection from="85821" to="85600" fromLane="0" toLane="0" contPos="-4.00" shape="380.24,785.71 384.04,786.40 386.57,787.08 389.06,787.97 391.47,789.15 393.72,790.62 394.80,791.52 395.79,792.50 396.69,793.58 397.49,794.73 398.18,795.95 398.75,797.23 399.20,798.54 399.54,799.91 399.89,802.57 399.91,805.25 399.66,807.88 399.20,810.46" via=":17_8_0" dir="l" state="m"/>

    <connection from=":17_0" to="85600" fromLane="0" toLane="0" dir="r" state="M"/>
    <connection from=":17_1" to="85822" fromLane="0" toLane="0" dir="s" state="M"/>
    <connection from=":17_2" to="85604" fromLane="0" toLane="0" dir="l" state="M"/>
    <connection from=":17_3" to="85818" fromLane="0" toLane="0" dir="r" state="M"/>
    <connection from=":17_4" to="85600" fromLane="0" toLane="0" dir="s" state="M"/>
    <connection from=":17_5" to="85822" fromLane="0" toLane="0" dir="l" state="M"/>
    <connection from=":17_6" to="85604" fromLane="0" toLane="0" dir="r" state="M"/>
    <connection from=":17_7" to="85818" fromLane="0" toLane="0" dir="s" state="M"/>
    <connection from=":17_8" to="85600" fromLane="0" toLane="0" dir="l" state="M"/>
    <connection from=":17_9" to="85822" fromLane="0" toLane="0" dir="r" state="M"/>
    <connection from=":17_10" to="85604" fromLane="0" toLane="0" dir="s" state="M"/>
    <connection from=":17_11" to="85818" fromLane="0" toLane="0" dir="l" state="M"/>

</net>