<routes>
	<vehicle depart="0.1" departLane="0" departPos="20.4959804682756" departSpeed="1.1926638" id="31" type="passenger">
		<route edges=":17_9 85822"/>
	</vehicle>
	<vehicle depart="0.1" departLane="0" departPos="58.54940107698816" departSpeed="0.84512964" id="39" type="passenger">
		<route edges="85603 85822"/>
	</vehicle>
	<vehicle depart="0.1" departLane="0" departPos="6.470578129912443" departSpeed="1.378853" id="310" type="passenger">
		<route edges=":17_8 85600"/>
	</vehicle>
	<vehicle depart="0.1" departLane="0" departPos="25.26984121481524" departSpeed="1.6214569" id="313" type="passenger">
		<route edges="85821 85600"/>
	</vehicle>
	<vehicle depart="0.1" departLane="0" departPos="16.466538249394077" departSpeed="0.096893897" id="316" type="passenger">
		<route edges="85821 85600"/>
	</vehicle>
	<vehicle depart="0.1" departLane="0" departPos="6.189601008056391" departSpeed="1.0562064" id="320" type="passenger">
		<route edges="85821 85600"/>
	</vehicle>
	<vehicle depart="0.1" departLane="0" departPos="15.188987260645431" departSpeed="7.2059088" id="332" type="passenger">
		<route edges=":17_0 85600"/>
	</vehicle>
	<vehicle depart="0.1" departLane="0" departPos="2.5" departSpeed="4.8106507" id="334" type="passenger">
		<route edges=":17_0 85600"/>
	</vehicle>
	<vehicle depart="0.1" departLane="0" departPos="47.95428537869117" departSpeed="8.1848187" id="336" type="passenger">
		<route edges="85819 85822"/>
	</vehicle>
	<vehicle depart="0.1" departLane="0" departPos="72.08409557711381" departSpeed="1.8519349" id="30" type="truck">
		<route edges="85603 85600"/>
	</vehicle>
</routes>
