<routes>
	<vehicle depart="0.1" departLane="0" departPos="19.43794395140424" departSpeed="1.3728779" id="328" type="bicycle">
		<route edges="85619 85420"/>
	</vehicle>
	<vehicle depart="0.1" departLane="0" departPos="18.401591262555506" departSpeed="6.9073074" id="35" type="passenger">
		<route edges=":68_0 85420 85458 85482 85496"/>
	</vehicle>
	<vehicle depart="0.1" departLane="0" departPos="7.878994590124824" departSpeed="2.2534212" id="38" type="passenger">
		<route edges=":66_0 85302"/>
	</vehicle>
	<vehicle depart="0.1" departLane="0" departPos="65.71598495722314" departSpeed="2.5380274" id="312" type="passenger">
		<route edges="85510 85906"/>
	</vehicle>
	<vehicle depart="0.1" departLane="0" departPos="56.015522265142614" departSpeed="0.91151347" id="313" type="passenger">
		<route edges="85510 85906"/>
	</vehicle>
	<vehicle depart="0.1" departLane="0" departPos="26.828552776490017" departSpeed="0.0" id="324" type="passenger">
		<route edges="85619 85420"/>
	</vehicle>
	<vehicle depart="0.1" departLane="0" departPos="2.5" departSpeed="8.3458616" id="344" type="passenger">
		<route edges=":67_1 85906 85490 85416"/>
	</vehicle>
	<vehicle depart="0.1" departLane="0" departPos="40.85072269297546" departSpeed="6.050453" id="347" type="passenger">
		<route edges="85703 85304 85511"/>
	</vehicle>
	<vehicle depart="0.1" departLane="0" departPos="9.388923770666825" departSpeed="0.30504524" id="30" type="truck">
		<route edges=":67_0 85511"/>
	</vehicle>
	<vehicle depart="0.1" departLane="0" departPos="13.140223266743318" departSpeed="1.7105273" id="341" type="truck">
		<route edges="85619 85420"/>
	</vehicle>
</routes>
