<!-- generated on Tue Feb  9 22:21:27 2021 by Eclipse SUMO netconvert Version 1.8.0
<configuration xmlns:xsi="http://www.w3.org/2001/XMLSchema-instance" xsi:noNamespaceSchemaLocation="http://sumo.dlr.de/xsd/netconvertConfiguration.xsd">

    <input>
        <node-files value="./converted_scenarios/scenario-factory/FRA_Anglet-2_1_I-1-1/FRA_Anglet-2_1_I-1-1.nod.xml"/>
        <edge-files value="./converted_scenarios/scenario-factory/FRA_Anglet-2_1_I-1-1/FRA_Anglet-2_1_I-1-1.edg.xml"/>
        <connection-files value="./converted_scenarios/scenario-factory/FRA_Anglet-2_1_I-1-1/FRA_Anglet-2_1_I-1-1.con.xml"/>
        <tllogic-files value="./converted_scenarios/scenario-factory/FRA_Anglet-2_1_I-1-1/FRA_Anglet-2_1_I-1-1.tll.xml"/>
        <type-files value="/home/zen/commonroad-interactive-benchmarks/install/commonroad-map-tool/crmapconverter/sumo_map/templates/DEU.typ.xml"/>
    </input>

    <output>
        <output-file value="./converted_scenarios/scenario-factory/FRA_Anglet-2_1_I-1-1/FRA_Anglet-2_1_I-1-1.net.xml"/>
    </output>

    <processing>
        <geometry.remove.keep-edges.explicit value="true"/>
        <geometry.avoid-overlap value="true"/>
        <offset.disable-normalization value="true"/>
    </processing>

    <junctions>
        <no-turnarounds value="true"/>
        <junctions.internal-link-detail value="20"/>
    </junctions>

    <report>
        <aggregate-warnings value="5"/>
    </report>

    <random_number>
        <seed value="1234"/>
    </random_number>

</configuration>
--><net xmlns:xsi="http://www.w3.org/2001/XMLSchema-instance" version="1.6" junctionCornerDetail="5" junctionLinkDetail="20" limitTurnSpeed="5.50" xsi:noNamespaceSchemaLocation="http://sumo.dlr.de/xsd/net_file.xsd">

    <location netOffset="0.00,0.00" convBoundary="-603.22,548.14,-388.80,664.30" origBoundary="-603.22,548.14,-388.80,664.30" projParameter="!"/>

    <type id="highway.bridleway" priority="1" speed="2.78" allow="pedestrian" oneway="1" width="2.00"/>
    <type id="highway.bus_guideway" priority="1" speed="27.78" allow="bus" oneway="1"/>
    <type id="highway.cycleway" priority="1" speed="8.33" allow="bicycle" oneway="0" width="1.00"/>
    <type id="highway.footway" priority="1" speed="2.78" allow="pedestrian" oneway="1" width="2.00"/>
    <type id="highway.ford" priority="1" speed="2.78" allow="army" oneway="0"/>
    <type id="highway.living_street" priority="2" speed="2.78" disallow="tram rail_urban rail rail_electric rail_fast ship" oneway="0"/>
    <type id="highway.motorway" priority="14" speed="39.44" allow="private emergency authority army vip passenger hov taxi bus coach delivery truck trailer motorcycle evehicle custom1 custom2" oneway="1"/>
    <type id="highway.motorway_link" priority="9" speed="22.22" allow="private emergency authority army vip passenger hov taxi bus coach delivery truck trailer motorcycle evehicle custom1 custom2" oneway="1"/>
    <type id="highway.path" priority="1" speed="2.78" allow="pedestrian bicycle" oneway="0" width="2.00"/>
    <type id="highway.pedestrian" priority="1" speed="2.78" allow="pedestrian" oneway="1" width="2.00"/>
    <type id="highway.primary" priority="12" speed="27.78" disallow="pedestrian tram rail_urban rail rail_electric rail_fast ship" oneway="0"/>
    <type id="highway.primary_link" priority="7" speed="22.22" disallow="pedestrian tram rail_urban rail rail_electric rail_fast ship" oneway="0"/>
    <type id="highway.raceway" priority="15" speed="83.33" allow="vip" oneway="0"/>
    <type id="highway.residential" priority="3" speed="13.89" disallow="pedestrian tram rail_urban rail rail_electric rail_fast ship" oneway="0"/>
    <type id="highway.secondary" priority="11" speed="27.78" disallow="pedestrian tram rail_urban rail rail_electric rail_fast ship" oneway="0"/>
    <type id="highway.secondary_link" priority="6" speed="22.22" disallow="pedestrian tram rail_urban rail rail_electric rail_fast ship" oneway="0"/>
    <type id="highway.service" priority="1" speed="5.56" allow="pedestrian delivery bicycle" oneway="0"/>
    <type id="highway.stairs" priority="1" speed="1.39" allow="pedestrian" oneway="1" width="2.00"/>
    <type id="highway.step" priority="1" speed="1.39" allow="pedestrian" oneway="1" width="2.00"/>
    <type id="highway.steps" priority="1" speed="1.39" allow="pedestrian" oneway="1" width="2.00"/>
    <type id="highway.tertiary" priority="10" speed="22.22" disallow="pedestrian tram rail_urban rail rail_electric rail_fast ship" oneway="0"/>
    <type id="highway.tertiary_link" priority="5" speed="22.22" disallow="pedestrian tram rail_urban rail rail_electric rail_fast ship" oneway="0"/>
    <type id="highway.track" priority="1" speed="5.56" allow="pedestrian motorcycle moped bicycle" oneway="0"/>
    <type id="highway.trunk" priority="13" speed="27.78" disallow="pedestrian bicycle tram rail_urban rail rail_electric rail_fast ship" oneway="0"/>
    <type id="highway.trunk_link" priority="8" speed="22.22" disallow="pedestrian bicycle tram rail_urban rail rail_electric rail_fast ship" oneway="0"/>
    <type id="highway.unclassified" priority="4" speed="13.89" disallow="pedestrian tram rail_urban rail rail_electric rail_fast ship" oneway="0"/>
    <type id="highway.unsurfaced" priority="1" speed="8.33" disallow="tram rail_urban rail rail_electric rail_fast ship" oneway="0"/>
    <type id="railway.highspeed" priority="21" speed="69.44" allow="rail_fast" oneway="1"/>
    <type id="railway.light_rail" priority="19" speed="27.78" allow="rail_urban" oneway="1"/>
    <type id="railway.preserved" priority="16" speed="27.78" allow="rail" oneway="1"/>
    <type id="railway.rail" priority="20" speed="44.44" allow="rail" oneway="1"/>
    <type id="railway.subway" priority="18" speed="27.78" allow="rail_urban" oneway="1"/>
    <type id="railway.tram" priority="17" speed="13.89" allow="tram" oneway="1"/>

    <edge id=":54_0" function="internal">
        <lane id=":54_0_0" index="0" disallow="pedestrian tram rail_urban rail rail_electric rail_fast ship" speed="36.11" length="2.25" width="3.50" shape="-539.99,565.47 -538.39,567.05"/>
    </edge>
    <edge id=":60_0" function="internal">
        <lane id=":60_0_0" index="0" disallow="pedestrian tram rail_urban rail rail_electric rail_fast ship" speed="16.20" length="6.49" width="3.48" shape="-525.52,603.16 -525.78,601.72 -525.93,599.42 -525.69,596.71"/>
    </edge>
    <edge id=":60_1" function="internal">
        <lane id=":60_1_0" index="0" disallow="pedestrian tram rail_urban rail rail_electric rail_fast ship" speed="7.30" length="8.63" width="3.48" shape="-531.11,602.10 -528.26,601.37 -527.23,600.79 -526.80,600.39 -526.43,599.93 -525.97,598.85 -525.69,596.71"/>
    </edge>
    <edge id=":61_0" function="internal">
        <lane id=":61_0_0" index="0" disallow="pedestrian tram rail_urban rail rail_electric rail_fast ship" speed="36.11" length="5.59" width="3.49" shape="-523.46,608.56 -524.29,606.72 -525.46,603.35"/>
    </edge>
    <edge id=":61_1" function="internal">
        <lane id=":61_1_0" index="0" disallow="pedestrian tram rail_urban rail rail_electric rail_fast ship" speed="5.14" length="4.78" width="3.49" shape="-526.18,607.39 -526.41,607.36 -525.93,606.99 -525.52,606.54 -525.22,606.01 -525.08,605.42 -525.08,604.82 -525.46,603.35"/>
    </edge>
    <edge id=":62_0" function="internal">
        <lane id=":62_0_0" index="0" disallow="pedestrian tram rail_urban rail rail_electric rail_fast ship" speed="9.90" length="16.56" width="3.50" shape="-529.52,610.72 -527.70,611.13 -528.76,611.34 -529.74,611.82 -531.04,612.81 -532.55,614.37 -534.53,616.97 -537.15,621.12 -537.42,621.59"/>
    </edge>
    <edge id=":62_1" function="internal">
        <lane id=":62_1_0" index="0" disallow="pedestrian tram rail_urban rail rail_electric rail_fast ship" speed="12.63" length="8.15" width="3.46" shape="-529.52,610.72 -529.81,610.53 -532.36,609.57 -534.28,608.53 -536.54,606.72"/>
    </edge>
    <edge id=":62_2" function="internal">
        <lane id=":62_2_0" index="0" disallow="pedestrian tram rail_urban rail rail_electric rail_fast ship" speed="8.84" length="14.53" width="3.46" shape="-540.46,619.86 -537.70,614.69 -536.23,611.27 -535.67,609.22 -535.61,608.16 -535.73,607.65 -536.54,606.72"/>
    </edge>
    <edge id=":62_3" function="internal">
        <lane id=":62_3_0" index="0" disallow="pedestrian tram rail_urban rail rail_electric rail_fast ship" speed="16.28" length="19.18" width="3.50" shape="-540.46,619.86 -538.49,616.78 -536.54,614.34 -534.33,612.13 -532.29,610.51 -530.08,609.13 -526.37,607.47"/>
    </edge>
    <edge id=":63_0" function="internal">
        <lane id=":63_0_0" index="0" disallow="pedestrian tram rail_urban rail rail_electric rail_fast ship" speed="12.31" length="6.12" width="3.50" shape="-525.83,596.86 -525.82,596.42 -526.14,594.32 -527.00,591.24 -527.12,590.90"/>
    </edge>
    <edge id=":63_1" function="internal">
        <lane id=":63_1_0" index="0" disallow="pedestrian tram rail_urban rail rail_electric rail_fast ship" speed="9.45" length="5.99" width="3.50" shape="-525.56,596.89 -525.45,596.43 -524.76,594.94 -523.57,593.11 -522.49,591.81"/>
    </edge>
    <edge id=":64_0" function="internal">
        <lane id=":64_0_0" index="0" disallow="pedestrian tram rail_urban rail rail_electric rail_fast ship" speed="9.59" length="7.01" width="3.48" shape="-520.02,582.62 -518.75,583.32 -516.30,584.32 -514.74,584.67 -513.43,584.62"/>
    </edge>
    <edge id=":64_1" function="internal">
        <lane id=":64_1_0" index="0" disallow="pedestrian tram rail_urban rail rail_electric rail_fast ship" speed="10.21" length="7.05" width="3.48" shape="-519.26,588.40 -518.23,587.40 -516.11,585.75 -514.70,584.97 -513.43,584.62"/>
    </edge>
    <edge id=":65_0" function="internal">
        <lane id=":65_0_0" index="0" disallow="pedestrian tram rail_urban rail rail_electric rail_fast ship" speed="25.62" length="15.19" width="3.50" shape="-531.80,580.99 -531.95,580.72 -534.56,576.91 -537.77,572.91 -541.24,569.13"/>
    </edge>
    <edge id=":65_1" function="internal">
        <lane id=":65_1_0" index="0" disallow="pedestrian tram rail_urban rail rail_electric rail_fast ship" speed="36.11" length="17.40" width="3.50" shape="-538.73,566.69 -532.15,573.23 -527.18,577.70 -526.05,578.59"/>
    </edge>
    <edge id=":66_0" function="internal">
        <lane id=":66_0_0" index="0" disallow="pedestrian tram rail_urban rail rail_electric rail_fast ship" speed="36.11" length="12.90" width="3.49" shape="-517.53,615.65 -520.26,613.89 -522.99,612.46 -525.41,611.58 -529.32,610.76"/>
    </edge>
    <edge id=":66_1" function="internal">
        <lane id=":66_1_0" index="0" disallow="pedestrian tram rail_urban rail rail_electric rail_fast ship" speed="11.76" length="9.12" width="3.50" shape="-517.51,615.62 -519.47,613.97 -521.29,612.02 -522.52,610.27 -523.36,608.73"/>
    </edge>
    <edge id=":67_0" function="internal">
        <lane id=":67_0_0" index="0" disallow="pedestrian tram rail_urban rail rail_electric rail_fast ship" speed="36.11" length="17.75" width="3.50" shape="-536.69,606.58 -538.20,605.46 -540.85,603.92 -548.77,600.35 -551.41,598.81 -552.27,598.19"/>
    </edge>
    <edge id=":67_1" function="internal">
        <lane id=":67_1_0" index="0" disallow="pedestrian tram rail_urban rail rail_electric rail_fast ship" speed="11.88" length="16.58" width="3.50" shape="-550.00,595.52 -546.66,597.81 -543.43,599.60 -540.52,600.84 -538.00,601.61 -535.40,602.07 -535.00,602.08"/>
    </edge>
    <edge id=":68_0" function="internal">
        <lane id=":68_0_0" index="0" disallow="pedestrian tram rail_urban rail rail_electric rail_fast ship" speed="9.03" length="18.03" width="3.50" shape="-501.49,567.84 -502.53,569.80 -503.33,571.99 -503.69,573.70 -503.82,575.45 -503.68,577.19 -503.28,578.89 -502.64,580.52 -501.48,582.54 -500.00,584.43"/>
    </edge>
    <edge id=":68_1" function="internal">
        <lane id=":68_1_0" index="0" disallow="pedestrian tram rail_urban rail rail_electric rail_fast ship" speed="14.53" length="21.60" width="3.50" shape="-513.22,584.59 -512.37,584.35 -511.38,583.90 -510.51,583.25 -509.46,581.99 -508.70,580.55 -507.98,578.49 -506.92,573.69 -506.07,569.97 -505.18,567.39 -504.44,565.93"/>
    </edge>
    <edge id=":68_2" function="internal">
        <lane id=":68_2_0" index="0" disallow="pedestrian tram rail_urban rail rail_electric rail_fast ship" speed="11.97" length="12.30" width="3.50" shape="-513.22,584.59 -510.84,584.38 -508.25,584.46 -505.17,584.93 -502.17,585.75 -501.15,586.15"/>
    </edge>
    <edge id=":69_0" function="internal">
        <lane id=":69_0_0" index="0" disallow="pedestrian tram rail_urban rail rail_electric rail_fast ship" speed="36.11" length="11.09" width="3.50" shape="-487.42,595.52 -486.00,597.62 -483.45,601.58 -481.81,603.61 -480.91,604.46"/>
    </edge>
    <edge id=":69_1" function="internal">
        <lane id=":69_1_0" index="0" disallow="pedestrian tram rail_urban rail rail_electric rail_fast ship" speed="9.15" length="11.59" width="3.50" shape="-487.38,595.48 -487.04,595.98 -486.11,597.92 -485.47,599.97 -485.05,602.62 -485.10,606.62"/>
    </edge>
    <edge id=":70_0" function="internal">
        <lane id=":70_0_0" index="0" disallow="pedestrian tram rail_urban rail rail_electric rail_fast ship" speed="36.11" length="19.76" width="3.50" shape="-452.15,622.41 -459.87,619.94 -466.73,618.14 -471.20,617.22"/>
    </edge>
    <edge id=":70_1" function="internal">
        <lane id=":70_1_0" index="0" disallow="pedestrian tram rail_urban rail rail_electric rail_fast ship" speed="36.11" length="21.60" width="3.50" shape="-470.90,610.74 -469.95,611.26 -463.92,614.09 -456.79,617.00 -451.00,619.10"/>
    </edge>
    <edge id=":71_0" function="internal">
        <lane id=":71_0_0" index="0" disallow="pedestrian tram rail_urban rail rail_electric rail_fast ship" speed="36.11" length="18.39" width="3.49" shape="-488.99,635.15 -503.79,624.23"/>
    </edge>
    <edge id=":71_1" function="internal">
        <lane id=":71_1_0" index="0" disallow="pedestrian tram rail_urban rail rail_electric rail_fast ship" speed="7.20" length="13.62" width="3.50" shape="-492.68,621.17 -493.13,622.20 -493.33,623.43 -493.21,624.68 -492.83,625.87 -491.91,627.51 -490.73,628.97 -488.93,630.72 -487.00,632.27"/>
    </edge>
    <edge id=":71_2" function="internal">
        <lane id=":71_2_0" index="0" disallow="pedestrian tram rail_urban rail rail_electric rail_fast ship" speed="8.25" length="9.88" width="3.49" shape="-493.25,620.48 -494.22,621.00 -496.25,621.75 -498.37,622.19 -500.53,622.33 -502.81,622.15"/>
    </edge>
    <edge id=":72_0" function="internal">
        <lane id=":72_0_0" index="0" disallow="pedestrian tram rail_urban rail rail_electric rail_fast ship" speed="9.70" length="7.46" width="3.49" shape="-482.96,615.80 -484.60,615.88 -486.17,616.23 -487.67,616.82 -489.51,617.91 -489.87,618.19"/>
    </edge>
    <edge id=":72_1" function="internal">
        <lane id=":72_1_0" index="0" disallow="pedestrian tram rail_urban rail rail_electric rail_fast ship" speed="12.16" length="7.93" width="3.49" shape="-485.97,611.35 -487.38,614.76 -488.52,616.59 -489.57,617.83 -489.91,618.14"/>
    </edge>

    <edge id="85302" from="66" to="62" priority="3" type="highway.residential" spreadType="center" length="0.20">
        <lane id="85302_0" index="0" disallow="pedestrian tram rail_urban rail rail_electric rail_fast ship" speed="36.11" length="0.20" width="3.49" customShape="1" shape="-529.32,610.76 -529.52,610.72"/>
    </edge>
    <edge id="85304" from="62" to="67" priority="3" type="highway.residential" spreadType="center" length="0.21">
        <lane id="85304_0" index="0" disallow="pedestrian tram rail_urban rail rail_electric rail_fast ship" speed="36.11" length="0.21" width="3.46" customShape="1" shape="-536.54,606.72 -536.69,606.58"/>
    </edge>
    <edge id="85329" from="69" to="70" priority="3" type="highway.residential" spreadType="center" length="11.81">
        <lane id="85329_0" index="0" disallow="pedestrian tram rail_urban rail rail_electric rail_fast ship" speed="36.11" length="11.81" width="3.50" customShape="1" shape="-481.01,604.60 -479.35,605.75 -471.28,611.29"/>
    </edge>
    <edge id="85346" from="62" to="61" priority="3" type="highway.residential" spreadType="center" length="0.21">
        <lane id="85346_0" index="0" disallow="pedestrian tram rail_urban rail rail_electric rail_fast ship" speed="36.11" length="0.21" width="3.50" customShape="1" shape="-526.37,607.47 -526.18,607.39"/>
    </edge>
    <edge id="85348" from="56" to="70" priority="3" type="highway.residential" spreadType="center" length="70.04" shape="-389.99,654.28 -467.07,617.35">
        <lane id="85348_0" index="0" disallow="pedestrian tram rail_urban rail rail_electric rail_fast ship" speed="36.11" length="70.04" width="3.50" customShape="1" shape="-389.99,654.28 -398.50,649.21 -420.69,636.56 -429.53,631.86 -437.21,628.19 -443.68,625.48 -452.19,622.39"/>
    </edge>
    <edge id="85349" from="70" to="50" priority="3" type="highway.residential" spreadType="center" length="70.01" shape="-465.56,614.19 -388.80,650.92">
        <lane id="85349_0" index="0" disallow="pedestrian tram rail_urban rail rail_electric rail_fast ship" speed="36.11" length="70.01" width="3.50" customShape="1" shape="-451.00,619.10 -442.46,622.20 -435.90,624.94 -428.13,628.65 -419.22,633.37 -396.96,646.06 -388.80,650.92"/>
    </edge>
    <edge id="85416" from="63" to="64" priority="3" type="highway.residential" spreadType="center" length="4.69">
        <lane id="85416_0" index="0" disallow="pedestrian tram rail_urban rail rail_electric rail_fast ship" speed="36.11" length="4.69" width="3.50" customShape="1" shape="-522.57,591.73 -521.01,590.11 -519.33,588.34"/>
    </edge>
    <edge id="85418" from="64" to="68" priority="3" type="highway.residential" spreadType="center" length="0.21">
        <lane id="85418_0" index="0" disallow="pedestrian tram rail_urban rail rail_electric rail_fast ship" speed="36.11" length="0.21" width="3.48" customShape="1" shape="-513.43,584.62 -513.22,584.59"/>
    </edge>
    <edge id="85420" from="68" to="69" priority="3" type="highway.residential" spreadType="center" length="16.63">
        <lane id="85420_0" index="0" disallow="pedestrian tram rail_urban rail rail_electric rail_fast ship" speed="36.11" length="16.63" width="3.50" customShape="1" shape="-500.46,585.12 -492.10,590.76 -486.67,594.42"/>
    </edge>
    <edge id="85458" from="69" to="72" priority="3" type="highway.residential" spreadType="center" length="4.82">
        <lane id="85458_0" index="0" disallow="pedestrian tram rail_urban rail rail_electric rail_fast ship" speed="36.11" length="4.82" width="3.50" customShape="1" shape="-485.10,606.62 -485.26,608.31 -485.85,611.00 -485.97,611.35"/>
    </edge>
    <edge id="85463" from="65" to="64" priority="3" type="highway.residential" spreadType="center" length="7.24">
        <lane id="85463_0" index="0" disallow="pedestrian tram rail_urban rail rail_electric rail_fast ship" speed="36.11" length="7.24" width="3.50" customShape="1" shape="-526.26,578.94 -522.12,581.46 -520.07,582.70"/>
    </edge>
    <edge id="85482" from="72" to="71" priority="3" type="highway.residential" spreadType="center" length="4.07">
        <lane id="85482_0" index="0" disallow="pedestrian tram rail_urban rail rail_electric rail_fast ship" speed="36.11" length="4.07" width="3.49" customShape="1" shape="-489.88,618.17 -490.46,618.64 -493.04,620.74"/>
    </edge>
    <edge id="85484" from="71" to="66" priority="3" type="highway.residential" spreadType="center" length="16.08">
        <lane id="85484_0" index="0" disallow="pedestrian tram rail_urban rail rail_electric rail_fast ship" speed="36.11" length="16.08" width="3.49" customShape="1" shape="-503.29,623.16 -510.47,619.79 -517.85,616.33"/>
    </edge>
    <edge id="85486" from="66" to="61" priority="3" type="highway.residential" spreadType="center" length="0.20">
        <lane id="85486_0" index="0" disallow="pedestrian tram rail_urban rail rail_electric rail_fast ship" speed="36.11" length="0.20" width="3.50" customShape="1" shape="-523.36,608.73 -523.46,608.56"/>
    </edge>
    <edge id="85488" from="61" to="60" priority="3" type="highway.residential" spreadType="center" length="0.20">
        <lane id="85488_0" index="0" disallow="pedestrian tram rail_urban rail rail_electric rail_fast ship" speed="36.11" length="0.20" width="3.49" customShape="1" shape="-525.46,603.35 -525.52,603.16"/>
    </edge>
    <edge id="85490" from="60" to="63" priority="3" type="highway.residential" spreadType="center" length="0.20">
        <lane id="85490_0" index="0" disallow="pedestrian tram rail_urban rail rail_electric rail_fast ship" speed="36.11" length="0.20" width="3.48" customShape="1" shape="-525.69,596.71 -525.67,596.51"/>
    </edge>
    <edge id="85495" from="53" to="71" priority="3" type="highway.residential" spreadType="center" length="69.88" shape="-421.64,648.69 -494.53,628.26">
        <lane id="85495_0" index="0" disallow="pedestrian tram rail_urban rail rail_electric rail_fast ship" speed="36.11" length="69.88" width="3.50" customShape="1" shape="-421.64,648.69 -423.94,648.02 -427.86,647.19 -431.84,646.72 -436.34,646.52 -444.85,646.40 -459.86,645.70 -464.83,645.15 -469.26,644.31 -473.61,643.13 -477.84,641.59 -481.50,639.95 -484.55,638.22 -488.99,635.15"/>
    </edge>
    <edge id="85496" from="71" to="42" priority="3" type="highway.residential" spreadType="center" length="70.00" shape="-493.58,624.90 -419.49,645.75">
        <lane id="85496_0" index="0" disallow="pedestrian tram rail_urban rail rail_electric rail_fast ship" speed="36.11" length="70.00" width="3.50" customShape="1" shape="-487.00,632.27 -482.55,635.34 -479.61,636.98 -476.06,638.54 -471.92,639.98 -467.67,641.07 -463.34,641.82 -458.42,642.28 -443.41,642.94 -434.81,643.07 -430.19,643.37 -426.08,643.98 -421.99,644.93 -419.49,645.75"/>
    </edge>
    <edge id="85510" from="51" to="67" priority="3" type="highway.residential" spreadType="center" length="70.19" shape="-601.05,551.42 -540.94,599.26">
        <lane id="85510_0" index="0" disallow="pedestrian tram rail_urban rail rail_electric rail_fast ship" speed="36.11" length="70.19" width="3.50" customShape="1" shape="-601.05,551.42 -598.73,553.64 -597.68,554.73 -596.78,555.95 -595.60,558.19 -594.43,560.99 -593.50,562.79 -592.57,563.99 -590.71,565.71 -588.30,567.55 -585.28,569.41 -581.21,571.45 -574.67,574.19 -568.14,576.96 -564.08,579.03 -561.08,580.92 -558.67,582.76 -556.45,584.83 -555.42,585.95 -554.81,586.75 -554.11,588.10 -553.54,590.05 -553.19,591.52 -552.64,592.93 -551.67,594.10 -550.01,595.53"/>
    </edge>
    <edge id="85511" from="67" to="35" priority="3" type="highway.residential" spreadType="center" length="69.99" shape="-543.12,602.00 -603.22,554.19">
        <lane id="85511_0" index="0" disallow="pedestrian tram rail_urban rail rail_electric rail_fast ship" speed="36.11" length="69.99" width="3.50" customShape="1" shape="-552.27,598.19 -553.94,596.78 -555.12,595.45 -556.07,593.73 -556.64,592.05 -557.17,590.14 -557.60,589.01 -557.89,588.49 -558.76,587.48 -560.84,585.51 -563.11,583.77 -565.98,581.98 -569.92,579.99 -576.40,577.27 -582.98,574.49 -587.16,572.37 -590.30,570.42 -592.84,568.49 -594.83,566.68 -595.99,565.32 -597.18,563.32 -598.44,560.46 -599.46,558.34 -600.12,557.31 -600.99,556.33 -603.22,554.19"/>
    </edge>
    <edge id="85619" from="52" to="68" priority="3" type="highway.residential" spreadType="center" length="26.78" shape="-481.09,551.37 -501.70,578.27">
        <lane id="85619_0" index="0" disallow="pedestrian tram rail_urban rail rail_electric rail_fast ship" speed="36.11" length="26.78" width="3.50" customShape="1" shape="-481.09,551.37 -482.03,551.75 -486.09,553.54 -489.10,555.23 -492.35,557.46 -495.01,559.67 -497.44,562.12 -499.29,564.43 -501.51,567.84"/>
    </edge>
    <edge id="85620" from="68" to="32" priority="3" type="highway.residential" spreadType="center" length="28.88" shape="-504.46,576.12 -482.43,548.14">
        <lane id="85620_0" index="0" disallow="pedestrian tram rail_urban rail rail_electric rail_fast ship" speed="36.11" length="28.88" width="3.50" customShape="1" shape="-504.44,565.93 -502.12,562.36 -500.08,559.82 -497.43,557.13 -494.53,554.73 -491.02,552.30 -487.74,550.46 -483.41,548.54 -482.43,548.14"/>
    </edge>
    <edge id="85702" from="62" to="21" priority="3" type="highway.residential" spreadType="center" length="49.20" shape="-532.22,614.41 -561.84,664.30">
        <lane id="85702_0" index="0" disallow="pedestrian tram rail_urban rail rail_electric rail_fast ship" speed="36.11" length="49.20" width="3.50" customShape="1" shape="-537.42,621.59 -549.63,642.94 -561.84,664.30"/>
    </edge>
    <edge id="85703" from="46" to="62" priority="3" type="highway.residential" spreadType="center" length="49.19" shape="-564.87,662.56 -535.23,612.63">
        <lane id="85703_0" index="0" disallow="pedestrian tram rail_urban rail rail_electric rail_fast ship" speed="36.11" length="49.19" width="3.50" customShape="1" shape="-564.87,662.56 -552.67,641.21 -540.46,619.85"/>
    </edge>
    <edge id="85795" from="54" to="65" priority="3" type="highway.residential" spreadType="center" length="0.20" shape="-538.93,566.49 -531.13,575.36">
        <lane id="85795_0" index="0" disallow="pedestrian tram rail_urban rail rail_electric rail_fast ship" speed="36.11" length="0.20" width="3.50" customShape="1" shape="-538.39,567.05 -538.25,567.19"/>
    </edge>
    <edge id="85906" from="67" to="60" priority="3" type="highway.residential" spreadType="center" length="3.80">
        <lane id="85906_0" index="0" disallow="pedestrian tram rail_urban rail rail_electric rail_fast ship" speed="36.11" length="3.80" width="3.50" customShape="1" shape="-534.82,602.93 -531.11,602.10"/>
    </edge>
    <edge id="85934" from="70" to="72" priority="3" type="highway.residential" spreadType="center" length="11.84">
        <lane id="85934_0" index="0" disallow="pedestrian tram rail_urban rail rail_electric rail_fast ship" speed="36.11" length="11.84" width="3.50" customShape="1" shape="-471.17,616.25 -482.87,615.81 -483.00,615.81"/>
    </edge>
    <edge id="85962" from="63" to="65" priority="3" type="highway.residential" spreadType="center" length="10.94">
        <lane id="85962_0" index="0" disallow="pedestrian tram rail_urban rail rail_electric rail_fast ship" speed="36.11" length="10.94" width="3.50" customShape="1" shape="-527.05,590.87 -528.15,588.12 -531.12,580.72"/>
    </edge>
    <edge id="86262" from="65" to="59" priority="3" type="highway.residential" spreadType="center" length="23.54" shape="-533.67,577.69 -559.95,554.95">
        <lane id="86262_0" index="0" disallow="pedestrian tram rail_urban rail rail_electric rail_fast ship" speed="36.11" length="23.54" width="3.50" customShape="1" shape="-541.24,569.13 -541.33,569.04 -541.42,568.95 -544.48,566.02 -548.55,562.65 -552.83,559.52 -558.14,556.05 -559.95,554.95"/>
    </edge>
    <edge id="86506" from="55" to="54" priority="3" type="highway.residential" spreadType="center" length="22.69">
        <lane id="86506_0" index="0" disallow="pedestrian tram rail_urban rail rail_electric rail_fast ship" speed="36.11" length="22.69" width="3.50" customShape="1" shape="-558.15,551.95 -556.28,553.09 -550.79,556.68 -546.36,559.92 -542.12,563.44 -539.99,565.47"/>
    </edge>

    <junction id="21" type="dead_end" x="-561.84" y="664.30" incLanes="85702_0" intLanes="" shape="-560.32,665.16 -563.35,663.43" rightOfWay="edgePriority"/>
    <junction id="32" type="dead_end" x="-482.43" y="548.14" incLanes="85620_0" intLanes="" shape="-483.10,546.52 -481.77,549.76" rightOfWay="edgePriority"/>
    <junction id="35" type="dead_end" x="-603.22" y="554.19" incLanes="85511_0" intLanes="" shape="-604.43,555.45 -602.01,552.93" rightOfWay="edgePriority"/>
    <junction id="42" type="dead_end" x="-419.49" y="645.75" incLanes="85496_0" intLanes="" shape="-418.94,644.09 -420.04,647.42" rightOfWay="edgePriority"/>
    <junction id="46" type="dead_end" x="-564.87" y="662.56" incLanes="" intLanes="" shape="-563.36,663.43 -566.39,661.69" rightOfWay="edgePriority"/>
    <junction id="50" type="dead_end" x="-388.80" y="650.92" incLanes="85349_0" intLanes="" shape="-387.91,649.41 -389.70,652.42" rightOfWay="edgePriority"/>
    <junction id="51" type="dead_end" x="-601.05" y="551.42" incLanes="" intLanes="" shape="-602.26,552.69 -599.84,550.16" rightOfWay="edgePriority"/>
    <junction id="52" type="dead_end" x="-481.09" y="551.37" incLanes="" intLanes="" shape="-481.75,549.75 -480.43,552.99" rightOfWay="edgePriority"/>
    <junction id="53" type="dead_end" x="-421.64" y="648.69" incLanes="" intLanes="" shape="-421.15,647.01 -422.13,650.37" rightOfWay="edgePriority"/>
    <junction id="54" type="priority" x="-538.93" y="566.49" incLanes="86506_0" intLanes=":54_0_0" shape="-539.15,568.77 -536.65,566.32 -538.78,564.20 -541.20,566.74" rightOfWay="edgePriority">
        <request index="0" response="0" foes="0" cont="0"/>
    </junction>
    <junction id="55" type="dead_end" x="-558.15" y="551.95" incLanes="" intLanes="" shape="-559.06,553.45 -557.24,550.46" rightOfWay="edgePriority"/>
    <junction id="56" type="dead_end" x="-389.99" y="654.28" incLanes="" intLanes="" shape="-389.09,652.78 -390.88,655.79" rightOfWay="edgePriority"/>
    <junction id="59" type="dead_end" x="-559.95" y="554.95" incLanes="86262_0" intLanes="" shape="-560.86,556.44 -559.04,553.46" rightOfWay="edgePriority"/>
    <junction id="60" type="priority" x="-526.84" y="601.32" incLanes="85488_0 85906_0" intLanes=":60_0_0 :60_1_0" shape="-526.38,606.36 -523.04,605.36 -523.92,596.53 -527.38,596.15 -531.49,600.40 -530.73,603.81">
        <request index="0" response="00" foes="10" cont="0"/>
        <request index="1" response="01" foes="01" cont="0"/>
    </junction>