<!-- generated on Tue Feb  9 22:00:35 2021 by Eclipse SUMO netconvert Version 1.8.0
<configuration xmlns:xsi="http://www.w3.org/2001/XMLSchema-instance" xsi:noNamespaceSchemaLocation="http://sumo.dlr.de/xsd/netconvertConfiguration.xsd">

    <input>
        <node-files value="./converted_scenarios/scenario-factory/ESP_Inca-7_1_I-1-1/ESP_Inca-7_1_I-1-1.nod.xml"/>
        <edge-files value="./converted_scenarios/scenario-factory/ESP_Inca-7_1_I-1-1/ESP_Inca-7_1_I-1-1.edg.xml"/>
        <connection-files value="./converted_scenarios/scenario-factory/ESP_Inca-7_1_I-1-1/ESP_Inca-7_1_I-1-1.con.xml"/>
        <tllogic-files value="./converted_scenarios/scenario-factory/ESP_Inca-7_1_I-1-1/ESP_Inca-7_1_I-1-1.tll.xml"/>
        <type-files value="/home/zen/commonroad-interactive-benchmarks/install/commonroad-map-tool/crmapconverter/sumo_map/templates/DEU.typ.xml"/>
    </input>

    <output>
        <output-file value="./converted_scenarios/scenario-factory/ESP_Inca-7_1_I-1-1/ESP_Inca-7_1_I-1-1.net.xml"/>
    </output>

    <processing>
        <geometry.remove.keep-edges.explicit value="true"/>
        <geometry.avoid-overlap value="true"/>
        <offset.disable-normalization value="true"/>
    </processing>

    <junctions>
        <no-turnarounds value="true"/>
        <junctions.internal-link-detail value="20"/>
    </junctions>

    <report>
        <aggregate-warnings value="5"/>
    </report>

    <random_number>
        <seed value="1234"/>
    </random_number>

</configuration>
--><net xmlns:xsi="http://www.w3.org/2001/XMLSchema-instance" version="1.6" junctionCornerDetail="5" junctionLinkDetail="20" limitTurnSpeed="5.50" xsi:noNamespaceSchemaLocation="http://sumo.dlr.de/xsd/net_file.xsd">

    <location netOffset="0.00,0.00" convBoundary="-132.96,836.44,-5.32,908.55" origBoundary="-132.96,836.44,-5.32,910.14" projParameter="!"/>

    <type id="highway.bridleway" priority="1" speed="2.78" allow="pedestrian" oneway="1" width="2.00"/>
    <type id="highway.bus_guideway" priority="1" speed="27.78" allow="bus" oneway="1"/>
    <type id="highway.cycleway" priority="1" speed="8.33" allow="bicycle" oneway="0" width="1.00"/>
    <type id="highway.footway" priority="1" speed="2.78" allow="pedestrian" oneway="1" width="2.00"/>
    <type id="highway.ford" priority="1" speed="2.78" allow="army" oneway="0"/>
    <type id="highway.living_street" priority="2" speed="2.78" disallow="tram rail_urban rail rail_electric rail_fast ship" oneway="0"/>
    <type id="highway.motorway" priority="14" speed="39.44" allow="private emergency authority army vip passenger hov taxi bus coach delivery truck trailer motorcycle evehicle custom1 custom2" oneway="1"/>
    <type id="highway.motorway_link" priority="9" speed="22.22" allow="private emergency authority army vip passenger hov taxi bus coach delivery truck trailer motorcycle evehicle custom1 custom2" oneway="1"/>
    <type id="highway.path" priority="1" speed="2.78" allow="pedestrian bicycle" oneway="0" width="2.00"/>
    <type id="highway.pedestrian" priority="1" speed="2.78" allow="pedestrian" oneway="1" width="2.00"/>
    <type id="highway.primary" priority="12" speed="27.78" disallow="pedestrian tram rail_urban rail rail_electric rail_fast ship" oneway="0"/>
    <type id="highway.primary_link" priority="7" speed="22.22" disallow="pedestrian tram rail_urban rail rail_electric rail_fast ship" oneway="0"/>
    <type id="highway.raceway" priority="15" speed="83.33" allow="vip" oneway="0"/>
    <type id="highway.residential" priority="3" speed="13.89" disallow="pedestrian tram rail_urban rail rail_electric rail_fast ship" oneway="0"/>
    <type id="highway.secondary" priority="11" speed="27.78" disallow="pedestrian tram rail_urban rail rail_electric rail_fast ship" oneway="0"/>
    <type id="highway.secondary_link" priority="6" speed="22.22" disallow="pedestrian tram rail_urban rail rail_electric rail_fast ship" oneway="0"/>
    <type id="highway.service" priority="1" speed="5.56" allow="pedestrian delivery bicycle" oneway="0"/>
    <type id="highway.stairs" priority="1" speed="1.39" allow="pedestrian" oneway="1" width="2.00"/>
    <type id="highway.step" priority="1" speed="1.39" allow="pedestrian" oneway="1" width="2.00"/>
    <type id="highway.steps" priority="1" speed="1.39" allow="pedestrian" oneway="1" width="2.00"/>
    <type id="highway.tertiary" priority="10" speed="22.22" disallow="pedestrian tram rail_urban rail rail_electric rail_fast ship" oneway="0"/>
    <type id="highway.tertiary_link" priority="5" speed="22.22" disallow="pedestrian tram rail_urban rail rail_electric rail_fast ship" oneway="0"/>
    <type id="highway.track" priority="1" speed="5.56" allow="pedestrian motorcycle moped bicycle" oneway="0"/>
    <type id="highway.trunk" priority="13" speed="27.78" disallow="pedestrian bicycle tram rail_urban rail rail_electric rail_fast ship" oneway="0"/>
    <type id="highway.trunk_link" priority="8" speed="22.22" disallow="pedestrian bicycle tram rail_urban rail rail_electric rail_fast ship" oneway="0"/>
    <type id="highway.unclassified" priority="4" speed="13.89" disallow="pedestrian tram rail_urban rail rail_electric rail_fast ship" oneway="0"/>
    <type id="highway.unsurfaced" priority="1" speed="8.33" disallow="tram rail_urban rail rail_electric rail_fast ship" oneway="0"/>
    <type id="railway.highspeed" priority="21" speed="69.44" allow="rail_fast" oneway="1"/>
    <type id="railway.light_rail" priority="19" speed="27.78" allow="rail_urban" oneway="1"/>
    <type id="railway.preserved" priority="16" speed="27.78" allow="rail" oneway="1"/>
    <type id="railway.rail" priority="20" speed="44.44" allow="rail" oneway="1"/>
    <type id="railway.subway" priority="18" speed="27.78" allow="rail_urban" oneway="1"/>
    <type id="railway.tram" priority="17" speed="13.89" allow="tram" oneway="1"/>

    <edge id=":11_0" function="internal">
        <lane id=":11_0_0" index="0" disallow="pedestrian tram rail_urban rail rail_electric rail_fast ship" speed="36.11" length="0.27" width="3.50" shape="-82.56,880.25 -82.31,880.14"/>
    </edge>
    <edge id=":12_0" function="internal">
        <lane id=":12_0_0" index="0" disallow="pedestrian tram rail_urban rail rail_electric rail_fast ship" speed="36.11" length="2.27" width="3.50" shape="-25.30,850.98 -26.93,852.56"/>
    </edge>
    <edge id=":18_0" function="internal">
        <lane id=":18_0_0" index="0" disallow="pedestrian tram rail_urban rail rail_electric rail_fast ship" speed="36.11" length="33.92" width="3.50" shape="-16.31,856.31 -30.66,862.00 -42.02,866.84 -47.60,869.38"/>
    </edge>
    <edge id=":18_1" function="internal">
        <lane id=":18_1_0" index="0" disallow="pedestrian tram rail_urban rail rail_electric rail_fast ship" speed="36.11" length="26.53" width="3.50" shape="-27.08,852.70 -31.21,856.68 -36.82,861.74 -41.04,865.17 -44.65,867.72 -47.60,869.38"/>
    </edge>
    <edge id=":18_2" function="internal">
        <lane id=":18_2_0" index="0" disallow="pedestrian tram rail_urban rail rail_electric rail_fast ship" speed="36.11" length="28.43" width="3.50" shape="-49.11,866.23 -46.40,864.69 -42.99,862.27 -38.95,858.96 -33.53,854.05 -27.34,848.09"/>
    </edge>
    <edge id=":18_3" function="internal">
        <lane id=":18_3_0" index="0" disallow="pedestrian tram rail_urban rail rail_electric rail_fast ship" speed="36.11" length="34.18" width="3.50" shape="-49.11,866.23 -43.45,863.64 -32.00,858.77 -17.58,853.05"/>
    </edge>
    <edge id=":19_0" function="internal">
        <lane id=":19_0_0" index="0" disallow="pedestrian tram rail_urban rail rail_electric rail_fast ship" speed="36.11" length="8.05" width="3.50" shape="-63.27,877.40 -67.81,880.07 -70.22,881.47"/>
        <lane id=":19_0_1" index="1" disallow="pedestrian tram rail_urban rail rail_electric rail_fast ship" speed="36.11" length="8.06" width="3.50" shape="-63.74,876.40 -71.26,879.30"/>
    </edge>
    <edge id=":8_0" function="internal">
        <lane id=":8_0_0" index="0" disallow="pedestrian tram rail_urban rail rail_electric rail_fast ship" speed="36.11" length="2.97" width="3.50" shape="-56.86,869.81 -54.15,868.59"/>
    </edge>

    <edge id="16511" from="14" to="11" priority="3" type="highway.residential" spreadType="center" length="55.63">
        <lane id="16511_0" index="0" disallow="pedestrian tram rail_urban rail rail_electric rail_fast ship" speed="36.11" length="55.63" width="3.50" customShape="1" shape="-132.96,903.79 -112.72,894.41 -82.56,880.25"/>
    </edge>
    <edge id="16513" from="19" to="10" priority="3" type="highway.residential" spreadType="center" length="66.27">
        <lane id="16513_0" index="0" disallow="pedestrian tram rail_urban rail rail_electric rail_fast ship" speed="36.11" length="66.30" width="3.50" customShape="1" shape="-69.94,882.06 -109.75,900.75 -130.00,910.14"/>
        <lane id="16513_1" index="1" disallow="pedestrian tram rail_urban rail rail_electric rail_fast ship" speed="36.11" length="66.27" width="3.50" customShape="1" shape="-71.45,878.90 -111.23,897.58 -131.48,906.97"/>
    </edge>
    <edge id="16605" from="12" to="18" priority="3" type="highway.residential" spreadType="center" length="0.21" shape="-26.38,852.01 -29.67,858.90">
        <lane id="16605_0" index="0" disallow="pedestrian tram rail_urban rail rail_electric rail_fast ship" speed="36.11" length="0.21" width="3.50" customShape="1" shape="-26.93,852.56 -27.08,852.70"/>
    </edge>
    <edge id="16898" from="18" to="6" priority="3" type="highway.residential" spreadType="center" length="11.79" shape="-31.64,856.17 -6.58,848.82">
        <lane id="16898_0" index="0" disallow="pedestrian tram rail_urban rail rail_electric rail_fast ship" speed="36.11" length="11.79" width="3.50" customShape="1" shape="-17.58,853.05 -12.07,850.93 -6.58,848.82"/>
    </edge>
    <edge id="16899" from="15" to="18" priority="3" type="highway.residential" spreadType="center" length="11.79" shape="-5.32,852.08 -30.65,859.52">
        <lane id="16899_0" index="0" disallow="pedestrian tram rail_urban rail rail_electric rail_fast ship" speed="36.11" length="11.79" width="3.50" customShape="1" shape="-5.32,852.08 -10.82,854.20 -16.32,856.31"/>
    </edge>
    <edge id="16901" from="8" to="18" priority="3" type="highway.residential" spreadType="center" length="5.60" shape="-55.50,869.22 -31.77,856.22">
        <lane id="16901_0" index="0" disallow="pedestrian tram rail_urban rail rail_electric rail_fast ship" speed="36.11" length="5.60" width="3.50" customShape="1" shape="-54.15,868.59 -52.31,867.72 -49.08,866.21"/>
    </edge>
    <edge id="16902" from="18" to="19" priority="3" type="highway.residential" spreadType="center" length="17.59" shape="-30.19,859.34 -67.48,877.87">
        <lane id="16902_0" index="0" disallow="pedestrian tram rail_urban rail rail_electric rail_fast ship" speed="36.11" length="17.59" width="3.50" customShape="1" shape="-47.60,869.38 -50.82,870.89 -63.53,876.84"/>
    </edge>
    <edge id="17224" from="11" to="8" priority="3" type="highway.residential" spreadType="center" length="27.47">
        <lane id="17224_0" index="0" disallow="pedestrian tram rail_urban rail rail_electric rail_fast ship" speed="36.11" length="27.47" width="3.50" customShape="1" shape="-82.31,880.14 -76.73,877.66 -60.25,871.30 -56.86,869.81"/>
    </edge>
    <edge id="17688" from="18" to="17" priority="3" type="highway.residential" spreadType="center" length="18.75" shape="-32.36,856.67 -12.66,836.44">
        <lane id="17688_0" index="0" disallow="pedestrian tram rail_urban rail rail_electric rail_fast ship" speed="36.11" length="18.75" width="3.50" customShape="1" shape="-27.34,848.09 -27.22,847.97 -23.86,845.07 -12.66,836.44"/>
    </edge>
    <edge id="17701" from="13" to="12" priority="3" type="highway.residential" spreadType="center" length="18.95">
        <lane id="17701_0" index="0" disallow="pedestrian tram rail_urban rail rail_electric rail_fast ship" speed="36.11" length="18.95" width="3.50" customShape="1" shape="-10.48,839.18 -21.57,847.71 -24.82,850.53 -25.30,850.98"/>
    </edge>

    <junction id="10" type="dead_end" x="-130.74" y="908.55" incLanes="16513_0 16513_1" intLanes="" shape="-129.27,911.73 -132.21,905.38" rightOfWay="edgePriority"/>
    <junction id="11" type="priority" x="-82.43" y="880.19" incLanes="16511_0" intLanes=":11_0_0" shape="-81.60,881.74 -83.02,878.54 -83.30,878.67 -81.82,881.84" rightOfWay="edgePriority">
        <request index="0" response="0" foes="0" cont="0"/>
    </junction>
    <junction id="12" type="priority" x="-26.38" y="852.01" incLanes="17701_0" intLanes=":12_0_0" shape="-24.09,852.25 -26.51,849.71 -28.67,851.81 -26.21,854.30" rightOfWay="edgePriority">
        <request index="0" response="0" foes="0" cont="0"/>
    </junction>
    <junction id="13" type="dead_end" x="-10.48" y="839.18" incLanes="" intLanes="" shape="-11.55,837.79 -9.42,840.56" rightOfWay="edgePriority"/>
    <junction id="14" type="dead_end" x="-132.96" y="903.79" incLanes="" intLanes="" shape="-132.22,905.38 -133.70,902.21" rightOfWay="edgePriority"/>
    <junction id="15" type="dead_end" x="-5.32" y="852.08" incLanes="" intLanes="" shape="-5.95,850.45 -4.70,853.72" rightOfWay="edgePriority"/>
    <junction id="17" type="dead_end" x="-12.66" y="836.44" incLanes="17688_0" intLanes="" shape="-13.73,835.05 -11.60,837.82" rightOfWay="edgePriority"/>
    <junction id="18" type="priority" x="-31.03" y="857.81" incLanes="16899_0 16605_0 16901_0" intLanes=":18_0_0 :18_1_0 :18_2_0 :18_3_0" shape="-15.69,857.95 -18.20,851.41 -23.68,851.80 -28.57,846.85 -32.76,851.08 -35.75,854.40 -38.26,857.12 -40.97,859.53 -44.59,861.93 -49.83,864.63 -46.85,870.96">
        <request index="0" response="0000" foes="0010" cont="0"/>
        <request index="1" response="1001" foes="1001" cont="0"/>
        <request index="2" response="0000" foes="0000" cont="0"/>
        <request index="3" response="0000" foes="0010" cont="0"/>
    </junction>
    <junction id="19" type="priority" x="-67.48" y="877.87" incLanes="16902_0" intLanes=":19_0_0 :19_0_1" shape="-62.79,878.43 -64.27,875.26 -67.16,876.18 -69.33,876.40 -70.59,876.69 -72.21,877.33 -69.18,883.64 -66.70,881.90 -65.28,880.17 -64.30,879.30">
        <request index="0" response="00" foes="00" cont="0"/>
        <request index="1" response="00" foes="00" cont="0"/>
    </junction>
    <junction id="6" type="dead_end" x="-6.58" y="848.82" incLanes="16898_0" intLanes="" shape="-7.21,847.19 -5.95,850.45" rightOfWay="edgePriority"/>
    <junction id="8" type="priority" x="-55.50" y="869.22" incLanes="17224_0" intLanes=":8_0_0" shape="-53.41,870.17 -54.89,867.00 -57.56,868.21 -56.15,871.41" rightOfWay="edgePriority">
        <request index="0" response="0" foes="0" cont="0"/>
    </junction>

    <connection from="16511" to="17224" fromLane="0" toLane="0" contPos="-4.00" via=":11_0_0" dir="s" state="M"/>
    <connection from="16605" to="16902" fromLane="0" toLane="0" contPos="-4.00" shape="-26.57,852.20 -31.21,856.68 -36.82,861.74 -41.04,865.17 -44.65,867.72 -47.60,869.38" via=":18_1_0" dir="s" state="m"/>
    <connection from="16899" to="16902" fromLane="0" toLane="0" contPos="-4.00" shape="-16.31,856.31 -30.66,862.00 -42.02,866.84 -47.60,869.38" via=":18_0_0" dir="s" state="M"/>
    <connection from="16901" to="17688" fromLane="0" toLane="0" contPos="-4.00" shape="-49.11,866.23 -46.40,864.69 -42.99,862.27 -38.95,858.96 -33.53,854.05 -29.02,849.70" via=":18_2_0" dir="R" state="M"/>
    <connection from="16901" to="16898" fromLane="0" toLane="0" contPos="-4.00" shape="-49.11,866.23 -43.45,863.64 -32.00,858.77 -17.58,853.05" via=":18_3_0" dir="s" state="M"/>
    <connection from="16902" to="16513" fromLane="0" toLane="0" contPos="-4.00" shape="-54.02,872.39 -59.45,875.17 -67.81,880.07 -74.87,884.17 -79.41,886.50" via=":19_0_0" dir="s" state="M"/>
    <connection from="16902" to="16513" fromLane="0" toLane="1" contPos="-4.00" shape="-54.02,872.39 -58.84,874.50 -75.31,880.86 -80.95,883.36" via=":19_0_1" dir="s" state="M"/>
    <connection from="17224" to="16901" fromLane="0" toLane="0" contPos="-4.00" via=":8_0_0" dir="s" state="M"/>
    <connection from="17701" to="16605" fromLane="0" toLane="0" contPos="-4.00" via=":12_0_0" dir="s" state="M"/>

    <connection from=":11_0" to="17224" fromLane="0" toLane="0" dir="s" state="M"/>
    <connection from=":12_0" to="16605" fromLane="0" toLane="0" dir="s" state="M"/>
    <connection from=":18_0" to="16902" fromLane="0" toLane="0" dir="s" state="M"/>
    <connection from=":18_1" to="16902" fromLane="0" toLane="0" dir="s" state="M"/>
    <connection from=":18_2" to="17688" fromLane="0" toLane="0" dir="R" state="M"/>
    <connection from=":18_3" to="16898" fromLane="0" toLane="0" dir="s" state="M"/>
    <connection from=":19_0" to="16513" fromLane="0" toLane="0" dir="s" state="M"/>
    <connection from=":19_0" to="16513" fromLane="1" toLane="1" dir="s" state="M"/>
    <connection from=":8_0" to="16901" fromLane="0" toLane="0" dir="s" state="M"/>

</net>