<routes>
	<vehicle depart="0.1" departLane="0" departPos="25.84853633325366" departSpeed="6.5604406" id="313" type="bicycle">
		<route edges=":18_1 16902 16513"/>
	</vehicle>
	<vehicle depart="0.1" departLane="0" departPos="4.561628598604812" departSpeed="6.737288" id="315" type="bicycle">
		<route edges="16902 16513"/>
	</vehicle>
	<vehicle depart="0.1" departLane="0" departPos="6.076021298384693" departSpeed="0.13996649" id="317" type="passenger">
		<route edges=":18_1 16902"/>
	</vehicle>
	<vehicle depart="0.1" departLane="0" departPos="13.837641530327424" departSpeed="7.911683" id="318" type="passenger">
		<route edges=":18_0 16902 16513"/>
	</vehicle>
	<vehicle depart="0.1" departLane="0" departPos="14.4036833202289" departSpeed="30.960928" id="320" type="passenger">
		<route edges="16511 17224 16901 17688"/>
	</vehicle>
</routes>
