<!-- generated on Tue Feb  9 22:19:55 2021 by Eclipse SUMO netconvert Version 1.8.0
<configuration xmlns:xsi="http://www.w3.org/2001/XMLSchema-instance" xsi:noNamespaceSchemaLocation="http://sumo.dlr.de/xsd/netconvertConfiguration.xsd">

    <input>
        <node-files value="./converted_scenarios/scenario-factory/DEU_BadWaldsee-1_2_I-1-1/DEU_BadWaldsee-1_2_I-1-1.nod.xml"/>
        <edge-files value="./converted_scenarios/scenario-factory/DEU_BadWaldsee-1_2_I-1-1/DEU_BadWaldsee-1_2_I-1-1.edg.xml"/>
        <connection-files value="./converted_scenarios/scenario-factory/DEU_BadWaldsee-1_2_I-1-1/DEU_BadWaldsee-1_2_I-1-1.con.xml"/>
        <tllogic-files value="./converted_scenarios/scenario-factory/DEU_BadWaldsee-1_2_I-1-1/DEU_BadWaldsee-1_2_I-1-1.tll.xml"/>
        <type-files value="/home/zen/commonroad-interactive-benchmarks/install/commonroad-map-tool/crmapconverter/sumo_map/templates/DEU.typ.xml"/>
    </input>

    <output>
        <output-file value="./converted_scenarios/scenario-factory/DEU_BadWaldsee-1_2_I-1-1/DEU_BadWaldsee-1_2_I-1-1.net.xml"/>
    </output>

    <processing>
        <geometry.remove.keep-edges.explicit value="true"/>
        <geometry.avoid-overlap value="true"/>
        <offset.disable-normalization value="true"/>
    </processing>

    <junctions>
        <no-turnarounds value="true"/>
        <junctions.internal-link-detail value="20"/>
    </junctions>

    <report>
        <aggregate-warnings value="5"/>
    </report>

    <random_number>
        <seed value="1234"/>
    </random_number>

</configuration>
--><net xmlns:xsi="http://www.w3.org/2001/XMLSchema-instance" version="1.6" junctionCornerDetail="5" junctionLinkDetail="20" limitTurnSpeed="5.50" xsi:noNamespaceSchemaLocation="http://sumo.dlr.de/xsd/net_file.xsd">

    <location netOffset="0.00,0.00" convBoundary="-306.79,27.54,-51.78,390.65" origBoundary="-306.79,27.54,-51.78,390.65" projParameter="!"/>

    <type id="highway.bridleway" priority="1" speed="2.78" allow="pedestrian" oneway="1" width="2.00"/>
    <type id="highway.bus_guideway" priority="1" speed="27.78" allow="bus" oneway="1"/>
    <type id="highway.cycleway" priority="1" speed="8.33" allow="bicycle" oneway="0" width="1.00"/>
    <type id="highway.footway" priority="1" speed="2.78" allow="pedestrian" oneway="1" width="2.00"/>
    <type id="highway.ford" priority="1" speed="2.78" allow="army" oneway="0"/>
    <type id="highway.living_street" priority="2" speed="2.78" disallow="tram rail_urban rail rail_electric rail_fast ship" oneway="0"/>
    <type id="highway.motorway" priority="14" speed="39.44" allow="private emergency authority army vip passenger hov taxi bus coach delivery truck trailer motorcycle evehicle custom1 custom2" oneway="1"/>
    <type id="highway.motorway_link" priority="9" speed="22.22" allow="private emergency authority army vip passenger hov taxi bus coach delivery truck trailer motorcycle evehicle custom1 custom2" oneway="1"/>
    <type id="highway.path" priority="1" speed="2.78" allow="pedestrian bicycle" oneway="0" width="2.00"/>
    <type id="highway.pedestrian" priority="1" speed="2.78" allow="pedestrian" oneway="1" width="2.00"/>
    <type id="highway.primary" priority="12" speed="27.78" disallow="pedestrian tram rail_urban rail rail_electric rail_fast ship" oneway="0"/>
    <type id="highway.primary_link" priority="7" speed="22.22" disallow="pedestrian tram rail_urban rail rail_electric rail_fast ship" oneway="0"/>
    <type id="highway.raceway" priority="15" speed="83.33" allow="vip" oneway="0"/>
    <type id="highway.residential" priority="3" speed="13.89" disallow="pedestrian tram rail_urban rail rail_electric rail_fast ship" oneway="0"/>
    <type id="highway.secondary" priority="11" speed="27.78" disallow="pedestrian tram rail_urban rail rail_electric rail_fast ship" oneway="0"/>
    <type id="highway.secondary_link" priority="6" speed="22.22" disallow="pedestrian tram rail_urban rail rail_electric rail_fast ship" oneway="0"/>
    <type id="highway.service" priority="1" speed="5.56" allow="pedestrian delivery bicycle" oneway="0"/>
    <type id="highway.stairs" priority="1" speed="1.39" allow="pedestrian" oneway="1" width="2.00"/>
    <type id="highway.step" priority="1" speed="1.39" allow="pedestrian" oneway="1" width="2.00"/>
    <type id="highway.steps" priority="1" speed="1.39" allow="pedestrian" oneway="1" width="2.00"/>
    <type id="highway.tertiary" priority="10" speed="22.22" disallow="pedestrian tram rail_urban rail rail_electric rail_fast ship" oneway="0"/>
    <type id="highway.tertiary_link" priority="5" speed="22.22" disallow="pedestrian tram rail_urban rail rail_electric rail_fast ship" oneway="0"/>
    <type id="highway.track" priority="1" speed="5.56" allow="pedestrian motorcycle moped bicycle" oneway="0"/>
    <type id="highway.trunk" priority="13" speed="27.78" disallow="pedestrian bicycle tram rail_urban rail rail_electric rail_fast ship" oneway="0"/>
    <type id="highway.trunk_link" priority="8" speed="22.22" disallow="pedestrian bicycle tram rail_urban rail rail_electric rail_fast ship" oneway="0"/>
    <type id="highway.unclassified" priority="4" speed="13.89" disallow="pedestrian tram rail_urban rail rail_electric rail_fast ship" oneway="0"/>
    <type id="highway.unsurfaced" priority="1" speed="8.33" disallow="tram rail_urban rail rail_electric rail_fast ship" oneway="0"/>
    <type id="railway.highspeed" priority="21" speed="69.44" allow="rail_fast" oneway="1"/>
    <type id="railway.light_rail" priority="19" speed="27.78" allow="rail_urban" oneway="1"/>
    <type id="railway.preserved" priority="16" speed="27.78" allow="rail" oneway="1"/>
    <type id="railway.rail" priority="20" speed="44.44" allow="rail" oneway="1"/>
    <type id="railway.subway" priority="18" speed="27.78" allow="rail_urban" oneway="1"/>
    <type id="railway.tram" priority="17" speed="13.89" allow="tram" oneway="1"/>

    <edge id=":69_0" function="internal">
        <lane id=":69_0_0" index="0" disallow="pedestrian tram rail_urban rail rail_electric rail_fast ship" speed="36.11" length="38.21" width="3.50" shape="-187.99,275.21 -189.19,273.54 -193.59,267.79 -198.24,262.26 -203.15,256.95 -208.31,251.90 -213.73,247.10"/>
    </edge>
    <edge id=":69_1" function="internal">
        <lane id=":69_1_0" index="0" disallow="pedestrian tram rail_urban rail rail_electric rail_fast ship" speed="11.41" length="37.14" width="3.50" shape="-187.99,275.21 -188.77,274.10 -190.92,270.72 -192.83,267.15 -193.91,264.59 -194.72,261.94 -195.01,260.51 -195.18,259.07 -195.20,257.58 -195.06,256.08 -194.71,254.59 -194.16,253.15 -193.40,251.79 -192.47,250.58 -191.40,249.50 -190.23,248.58 -188.97,247.78 -186.44,246.55 -183.79,245.65"/>
    </edge>
    <edge id=":69_2" function="internal">
        <lane id=":69_2_0" index="0" disallow="pedestrian tram rail_urban rail rail_electric rail_fast ship" speed="10.34" length="30.24" width="3.50" shape="-182.82,249.01 -185.02,249.77 -187.10,250.80 -188.07,251.45 -188.96,252.19 -189.75,253.04 -190.41,254.00 -190.93,255.04 -191.29,256.14 -191.48,257.29 -191.54,258.45 -191.47,259.61 -191.29,260.76 -191.03,261.89 -190.29,264.10 -189.36,266.23 -187.69,269.29 -185.80,272.23 -185.13,273.19"/>
    </edge>
    <edge id=":69_3" function="internal">
        <lane id=":69_3_0" index="0" disallow="pedestrian tram rail_urban rail rail_electric rail_fast ship" speed="16.17" length="32.19" width="3.50" shape="-182.82,249.01 -188.39,250.41 -192.92,251.21 -196.35,251.57 -199.79,251.66 -203.23,251.41 -205.50,251.02 -207.71,250.41 -209.85,249.57 -211.87,248.47 -213.73,247.10"/>
    </edge>
    <edge id=":69_4" function="internal">
        <lane id=":69_4_0" index="0" disallow="pedestrian tram rail_urban rail rail_electric rail_fast ship" speed="15.31" length="28.82" width="3.50" shape="-211.53,244.39 -209.92,245.57 -208.20,246.48 -206.35,247.18 -204.42,247.68 -202.44,247.99 -199.35,248.17 -196.23,248.06 -193.11,247.71 -188.95,246.95 -183.79,245.65"/>
    </edge>
    <edge id=":69_5" function="internal">
        <lane id=":69_5_0" index="0" disallow="pedestrian tram rail_urban rail rail_electric rail_fast ship" speed="36.11" length="39.17" width="3.50" shape="-211.53,244.39 -205.93,249.34 -200.65,254.51 -195.62,259.94 -190.87,265.60 -186.37,271.47 -185.13,273.19"/>
    </edge>
    <edge id=":70_0" function="internal">
        <lane id=":70_0_0" index="0" disallow="pedestrian tram rail_urban rail rail_electric rail_fast ship" speed="36.11" length="38.87" width="3.50" shape="-112.84,232.22 -121.81,234.32 -150.73,240.88"/>
    </edge>
    <edge id=":70_1" function="internal">
        <lane id=":70_1_0" index="0" disallow="pedestrian tram rail_urban rail rail_electric rail_fast ship" speed="12.09" length="34.09" width="3.50" shape="-112.84,232.23 -116.58,232.89 -119.17,233.09 -121.78,233.00 -124.37,232.58 -125.69,232.22 -126.96,231.75 -128.19,231.17 -129.37,230.48 -130.48,229.69 -131.51,228.80 -132.45,227.84 -133.33,226.79 -134.78,224.62 -135.96,222.29 -136.88,219.87 -137.86,216.24"/>
    </edge>
    <edge id=":70_2" function="internal">
        <lane id=":70_2_0" index="0" disallow="pedestrian tram rail_urban rail rail_electric rail_fast ship" speed="11.08" length="28.45" width="3.50" shape="-134.45,215.49 -133.59,218.64 -132.81,220.69 -131.83,222.64 -130.61,224.47 -129.91,225.31 -129.14,226.09 -128.31,226.80 -127.42,227.44 -126.48,227.99 -125.49,228.46 -124.46,228.84 -123.41,229.14 -121.25,229.49 -119.06,229.56 -116.87,229.40 -113.64,228.82"/>
    </edge>
    <edge id=":70_3" function="internal">
        <lane id=":70_3_0" index="0" disallow="pedestrian tram rail_urban rail rail_electric rail_fast ship" speed="12.25" length="34.49" width="3.50" shape="-134.45,215.49 -133.99,218.00 -133.72,220.58 -133.69,223.21 -133.97,225.86 -134.59,228.45 -135.07,229.76 -135.66,231.00 -136.35,232.19 -137.14,233.32 -138.03,234.37 -138.99,235.33 -140.05,236.23 -142.25,237.72 -144.60,238.92 -147.05,239.87 -150.73,240.88"/>
    </edge>
    <edge id=":70_4" function="internal">
        <lane id=":70_4_0" index="0" disallow="pedestrian tram rail_urban rail rail_electric rail_fast ship" speed="11.25" length="28.94" width="3.50" shape="-151.51,237.46 -148.28,236.58 -146.21,235.78 -144.22,234.77 -142.38,233.52 -141.53,232.80 -140.74,232.01 -140.02,231.16 -139.38,230.25 -138.82,229.28 -138.35,228.27 -137.96,227.23 -137.44,225.07 -137.21,222.85 -137.24,220.62 -137.47,218.40 -137.86,216.24"/>
    </edge>
    <edge id=":70_5" function="internal">
        <lane id=":70_5_0" index="0" disallow="pedestrian tram rail_urban rail rail_electric rail_fast ship" speed="36.11" length="38.84" width="3.50" shape="-151.51,237.46 -122.60,230.91 -113.64,228.82"/>
    </edge>
    <edge id=":71_0" function="internal">
        <lane id=":71_0_0" index="0" disallow="pedestrian tram rail_urban rail rail_electric rail_fast ship" speed="12.26" length="30.94" width="3.50" shape="-156.01,132.76 -156.83,129.68 -157.55,127.67 -158.44,125.73 -159.51,123.88 -160.78,122.16 -162.25,120.61 -163.91,119.27 -165.73,118.15 -167.68,117.28 -169.71,116.65 -171.81,116.23 -173.93,116.01 -177.13,115.99 -178.20,116.06"/>
    </edge>
    <edge id=":71_1" function="internal">
        <lane id=":71_1_0" index="0" disallow="pedestrian tram rail_urban rail rail_electric rail_fast ship" speed="36.11" length="40.00" width="3.50" shape="-156.01,132.76 -158.28,121.42 -160.17,110.00 -161.69,98.53 -162.25,93.27"/>
    </edge>
    <edge id=":71_2" function="internal">
        <lane id=":71_2_0" index="0" disallow="pedestrian tram rail_urban rail rail_electric rail_fast ship" speed="11.89" length="34.77" width="3.50" shape="-156.01,132.76 -156.63,128.97 -156.80,126.35 -156.70,123.70 -156.26,121.07 -155.87,119.72 -155.38,118.43 -154.76,117.18 -154.02,116.00 -153.17,114.89 -152.22,113.87 -151.19,112.95 -150.05,112.12 -147.73,110.79 -145.27,109.79 -142.74,109.07 -138.93,108.39"/>
    </edge>
    <edge id=":71_3" function="internal">
        <lane id=":71_3_0" index="0" disallow="pedestrian tram rail_urban rail rail_electric rail_fast ship" speed="10.86" length="28.83" width="3.50" shape="-138.50,111.86 -141.78,112.45 -143.91,113.06 -145.97,113.89 -147.90,114.99 -148.79,115.65 -149.62,116.39 -150.37,117.20 -151.05,118.08 -151.63,119.03 -152.12,120.02 -152.52,121.06 -152.82,122.12 -153.19,124.31 -153.27,126.53 -153.13,128.74 -152.59,132.01"/>
    </edge>
    <edge id=":71_4" function="internal">
        <lane id=":71_4_0" index="0" disallow="pedestrian tram rail_urban rail rail_electric rail_fast ship" speed="36.11" length="39.92" width="3.50" shape="-138.50,111.86 -159.37,114.30 -175.06,115.81 -178.20,116.06"/>
    </edge>
    <edge id=":71_5" function="internal">
        <lane id=":71_5_0" index="0" disallow="pedestrian tram rail_urban rail rail_electric rail_fast ship" speed="36.11" length="39.60" width="3.50" shape="-158.77,92.92 -158.21,98.12 -156.71,109.49 -154.83,120.79 -152.59,132.01"/>
    </edge>
    <edge id=":71_6" function="internal">
        <lane id=":71_6_0" index="0" disallow="pedestrian tram rail_urban rail rail_electric rail_fast ship" speed="12.19" length="34.87" width="3.50" shape="-158.77,92.92 -158.57,96.96 -158.72,99.64 -159.14,102.28 -159.90,104.85 -160.41,106.09 -161.03,107.28 -161.75,108.41 -162.56,109.48 -163.47,110.46 -164.47,111.36 -165.53,112.17 -166.66,112.89 -169.07,114.07 -171.60,114.94 -174.21,115.55 -178.20,116.06"/>
    </edge>
    <edge id=":71_7" function="internal">
        <lane id=":71_7_0" index="0" disallow="pedestrian tram rail_urban rail rail_electric rail_fast ship" speed="11.19" length="29.20" width="3.50" shape="-178.48,112.57 -174.98,112.13 -172.76,111.61 -170.63,110.88 -168.61,109.88 -167.72,109.31 -166.85,108.66 -166.05,107.94 -165.33,107.15 -164.68,106.30 -164.10,105.39 -163.60,104.43 -163.19,103.46 -162.56,101.30 -162.20,99.07 -162.08,96.80 -162.25,93.27"/>
    </edge>
    <edge id=":71_8" function="internal">
        <lane id=":71_8_0" index="0" disallow="pedestrian tram rail_urban rail rail_electric rail_fast ship" speed="36.11" length="39.77" width="3.50" shape="-178.48,112.57 -175.35,112.32 -159.73,110.82 -138.93,108.39"/>
    </edge>
    <edge id=":71_9" function="internal">
        <lane id=":71_9_0" index="0" disallow="pedestrian tram rail_urban rail rail_electric rail_fast ship" speed="13.20" length="36.01" width="3.50" shape="-178.48,112.57 -177.22,112.49 -173.61,112.52 -171.15,112.77 -168.71,113.26 -166.32,114.00 -164.01,115.03 -161.85,116.36 -159.87,117.96 -158.13,119.79 -156.64,121.82 -155.38,123.97 -154.35,126.21 -153.52,128.53 -152.59,132.01"/>
    </edge>
    <edge id=":72_0" function="internal">
        <lane id=":72_0_0" index="0" disallow="pedestrian tram rail_urban rail rail_electric rail_fast ship" speed="36.11" length="23.63" width="3.50" shape="-75.70,223.31 -75.84,223.35 -98.66,228.90"/>
    </edge>
    <edge id=":72_1" function="internal">
        <lane id=":72_1_0" index="0" disallow="pedestrian tram rail_urban rail rail_electric rail_fast ship" speed="8.88" length="17.78" width="3.50" shape="-76.80,218.77 -77.49,218.40 -78.58,217.68 -79.61,216.87 -80.56,215.98 -82.25,213.98 -83.65,211.77 -84.79,209.42 -85.72,206.98 -86.45,204.46"/>
    </edge>
    <edge id=":72_2" function="internal">
        <lane id=":72_2_0" index="0" disallow="pedestrian tram rail_urban rail rail_electric rail_fast ship" speed="36.11" length="4.03" width="3.50" shape="-83.06,203.61 -82.99,203.91 -82.92,204.17 -82.86,204.41 -82.80,204.62 -82.74,204.82 -82.69,205.00 -82.64,205.16 -82.59,205.32 -82.54,205.47 -82.49,205.62 -82.43,205.78 -82.37,205.93 -82.31,206.10 -82.24,206.27 -82.17,206.46 -82.09,206.67 -82.00,206.90 -81.91,207.15 -81.80,207.43"/>
    </edge>
    <edge id=":72_3" function="internal">
        <lane id=":72_3_0" index="0" disallow="pedestrian tram rail_urban rail rail_electric rail_fast ship" speed="12.11" length="34.15" width="3.50" shape="-83.06,203.61 -82.31,207.33 -82.07,209.92 -82.11,212.54 -82.48,215.14 -82.83,216.48 -83.28,217.76 -83.84,219.00 -84.52,220.19 -85.30,221.31 -86.17,222.35 -87.12,223.31 -88.17,224.21 -90.32,225.69 -92.64,226.89 -95.05,227.85 -98.66,228.90"/>
    </edge>
    <edge id=":72_4" function="internal">
        <lane id=":72_4_0" index="0" disallow="pedestrian tram rail_urban rail rail_electric rail_fast ship" speed="11.11" length="28.54" width="3.50" shape="-99.49,225.50 -96.33,224.59 -94.29,223.78 -92.34,222.77 -90.53,221.52 -89.70,220.81 -88.93,220.03 -88.22,219.19 -87.59,218.29 -87.05,217.34 -86.59,216.34 -86.22,215.31 -85.94,214.24 -85.63,212.07 -85.60,209.88 -85.80,207.69 -86.45,204.46"/>
    </edge>
    <edge id=":72_5" function="internal">
        <lane id=":72_5_0" index="0" disallow="pedestrian tram rail_urban rail rail_electric rail_fast ship" speed="36.11" length="23.61" width="3.50" shape="-99.46,225.49 -76.52,219.91"/>
    </edge>
    <edge id=":74_0" function="internal">
        <lane id=":74_0_0" index="0" disallow="pedestrian tram rail_urban rail rail_electric rail_fast ship" speed="10.58" length="29.56" width="3.50" shape="-217.56,244.00 -220.51,241.88 -222.53,240.70 -224.63,239.74 -226.82,239.04 -227.87,238.84 -228.96,238.73 -230.04,238.71 -231.10,238.81 -232.14,239.02 -233.16,239.35 -234.15,239.78 -235.09,240.31 -235.98,240.91 -237.70,242.41 -239.22,244.14 -240.59,246.05 -241.82,248.08"/>
    </edge>
    <edge id=":74_1" function="internal">
        <lane id=":74_1_0" index="0" disallow="pedestrian tram rail_urban rail rail_electric rail_fast ship" speed="36.11" length="39.17" width="3.50" shape="-217.56,244.00 -227.45,236.58 -249.24,220.96"/>
    </edge>
    <edge id=":74_2" function="internal">
        <lane id=":74_2_0" index="0" disallow="pedestrian tram rail_urban rail rail_electric rail_fast ship" speed="36.11" length="39.32" width="3.50" shape="-247.22,218.11 -225.35,233.78 -215.42,241.23"/>
    </edge>
    <edge id=":74_3" function="internal">
        <lane id=":74_3_0" index="0" disallow="pedestrian tram rail_urban rail rail_electric rail_fast ship" speed="12.88" length="34.13" width="3.50" shape="-247.22,218.10 -245.19,219.66 -243.33,221.36 -241.64,223.24 -240.19,225.31 -239.03,227.56 -238.21,229.94 -237.76,232.43 -237.67,234.95 -237.90,237.47 -238.42,239.94 -239.17,242.35 -240.65,245.84 -241.82,248.08"/>
    </edge>
    <edge id=":74_4" function="internal">
        <lane id=":74_4_0" index="0" disallow="pedestrian tram rail_urban rail rail_electric rail_fast ship" speed="11.92" length="29.08" width="3.50" shape="-244.94,246.49 -243.85,244.41 -242.54,241.33 -241.89,239.27 -241.44,237.16 -241.23,235.05 -241.29,232.96 -241.65,230.92 -242.31,228.95 -243.26,227.10 -244.46,225.37 -245.88,223.77 -247.48,222.31 -249.24,220.96"/>
    </edge>
    <edge id=":74_5" function="internal">
        <lane id=":74_5_0" index="0" disallow="pedestrian tram rail_urban rail rail_electric rail_fast ship" speed="11.61" length="35.87" width="3.50" shape="-244.94,246.49 -243.45,244.02 -241.85,241.79 -240.04,239.72 -237.97,237.91 -236.84,237.13 -235.64,236.46 -234.38,235.90 -233.08,235.48 -231.73,235.20 -230.36,235.07 -228.99,235.08 -227.62,235.22 -226.27,235.48 -223.65,236.30 -221.15,237.44 -218.78,238.83 -215.42,241.23"/>
    </edge>
    <edge id=":75_0" function="internal">
        <lane id=":75_0_0" index="0" disallow="pedestrian tram rail_urban rail rail_electric rail_fast ship" speed="36.11" length="37.78" width="3.50" shape="-164.77,329.50 -171.34,309.08 -175.03,298.48 -176.94,293.75"/>
    </edge>
    <edge id=":75_1" function="internal">
        <lane id=":75_1_0" index="0" disallow="pedestrian tram rail_urban rail rail_electric rail_fast ship" speed="11.98" length="34.89" width="3.50" shape="-164.77,329.50 -165.14,328.24 -165.74,325.72 -166.12,323.11 -166.21,320.43 -165.94,317.76 -165.63,316.38 -165.21,315.06 -164.67,313.77 -164.00,312.54 -163.22,311.38 -162.34,310.30 -161.38,309.32 -160.32,308.40 -158.12,306.89 -155.77,305.65 -153.32,304.67 -149.62,303.59"/>
    </edge>
    <edge id=":75_2" function="internal">
        <lane id=":75_2_0" index="0" disallow="pedestrian tram rail_urban rail rail_electric rail_fast ship" speed="10.97" length="29.03" width="3.50" shape="-148.80,306.99 -152.01,307.93 -154.09,308.76 -156.07,309.79 -157.91,311.06 -158.75,311.79 -159.54,312.58 -160.25,313.45 -160.87,314.37 -161.41,315.35 -161.84,316.38 -162.18,317.44 -162.43,318.53 -162.66,320.75 -162.58,322.99 -162.26,325.20 -161.75,327.37 -161.44,328.44"/>
    </edge>
    <edge id=":75_3" function="internal">
        <lane id=":75_3_0" index="0" disallow="pedestrian tram rail_urban rail rail_electric rail_fast ship" speed="13.29" length="34.24" width="3.50" shape="-148.80,306.99 -152.40,307.68 -154.83,307.92 -157.28,307.96 -159.72,307.77 -162.12,307.31 -164.45,306.57 -166.67,305.54 -168.74,304.24 -170.63,302.69 -172.34,300.94 -173.87,299.03 -175.83,295.93 -176.94,293.75"/>
    </edge>
    <edge id=":75_4" function="internal">
        <lane id=":75_4_0" index="0" disallow="pedestrian tram rail_urban rail rail_electric rail_fast ship" speed="12.35" length="29.44" width="3.50" shape="-173.78,292.24 -172.80,294.16 -171.08,296.89 -169.77,298.53 -168.32,300.02 -166.72,301.32 -164.98,302.42 -163.12,303.28 -161.16,303.90 -159.12,304.28 -157.03,304.45 -154.92,304.41 -152.81,304.20 -149.62,303.59"/>
    </edge>
    <edge id=":75_5" function="internal">
        <lane id=":75_5_0" index="0" disallow="pedestrian tram rail_urban rail rail_electric rail_fast ship" speed="36.11" length="38.27" width="3.50" shape="-173.78,292.23 -171.79,297.15 -168.05,307.88 -161.44,328.44"/>
    </edge>
    <edge id=":76_0" function="internal">
        <lane id=":76_0_0" index="0" disallow="pedestrian tram rail_urban rail rail_electric rail_fast ship" speed="11.00" length="29.03" width="3.50" shape="-212.80,136.72 -213.04,134.50 -213.45,132.31 -214.08,130.16 -214.95,128.11 -215.50,127.14 -216.12,126.21 -216.82,125.34 -217.60,124.54 -218.45,123.81 -219.36,123.17 -220.33,122.61 -221.34,122.14 -222.39,121.76 -224.56,121.22 -226.77,120.95 -229.01,120.91 -232.35,121.16"/>
    </edge>
    <edge id=":76_1" function="internal">
        <lane id=":76_1_0" index="0" disallow="pedestrian tram rail_urban rail rail_electric rail_fast ship" speed="36.11" length="39.13" width="3.50" shape="-212.80,136.72 -213.76,126.47 -215.33,114.22 -217.58,99.98 -217.93,97.94"/>
    </edge>
    <edge id=":76_2" function="internal">
        <lane id=":76_2_0" index="0" disallow="pedestrian tram rail_urban rail rail_electric rail_fast ship" speed="12.21" length="34.25" width="3.50" shape="-212.80,136.72 -212.89,132.77 -212.70,130.14 -212.26,127.55 -211.52,125.02 -211.02,123.80 -210.43,122.62 -209.74,121.50 -208.97,120.43 -208.10,119.44 -207.14,118.53 -206.12,117.71 -205.03,116.97 -202.69,115.75 -200.22,114.85 -197.66,114.23 -195.05,113.84 -193.74,113.72"/>
    </edge>
    <edge id=":76_3" function="internal">
        <lane id=":76_3_0" index="0" disallow="pedestrian tram rail_urban rail rail_electric rail_fast ship" speed="11.20" length="28.67" width="3.50" shape="-193.48,117.21 -194.60,117.31 -196.86,117.65 -199.04,118.18 -201.11,118.93 -203.06,119.96 -203.91,120.54 -204.74,121.21 -205.50,121.94 -206.19,122.73 -206.81,123.59 -207.36,124.50 -207.84,125.46 -208.24,126.43 -208.86,128.57 -209.23,130.77 -209.39,133.01 -209.31,136.47"/>
    </edge>
    <edge id=":76_4" function="internal">
        <lane id=":76_4_0" index="0" disallow="pedestrian tram rail_urban rail rail_electric rail_fast ship" speed="36.11" length="39.47" width="3.50" shape="-214.48,97.35 -214.13,99.40 -211.86,113.74 -210.27,126.10 -209.31,136.47"/>
    </edge>
    <edge id=":76_5" function="internal">
        <lane id=":76_5_0" index="0" disallow="pedestrian tram rail_urban rail rail_electric rail_fast ship" speed="12.01" length="34.86" width="3.50" shape="-232.83,117.69 -228.93,117.40 -226.30,117.46 -223.67,117.78 -221.08,118.42 -219.77,118.90 -218.52,119.49 -217.32,120.18 -216.18,120.98 -215.13,121.89 -214.16,122.90 -213.30,123.97 -212.53,125.12 -211.85,126.34 -210.81,128.78 -210.07,131.32 -209.59,133.89 -209.31,136.47"/>
    </edge>

    <edge id="110" from="65" to="71" priority="3" type="highway.residential" spreadType="center" length="70.01" shape="-69.29,101.61 -157.75,114.22">
        <lane id="110_0" index="0" disallow="pedestrian tram rail_urban rail rail_electric rail_fast ship" speed="36.11" length="70.01" width="3.50" customShape="1" shape="-69.29,101.61 -77.94,103.42 -90.39,105.61 -104.89,107.73 -138.51,111.86"/>
    </edge>
    <edge id="111" from="71" to="57" priority="3" type="highway.residential" spreadType="center" length="70.00" shape="-158.25,110.75 -69.72,98.12">
        <lane id="111_0" index="0" disallow="pedestrian tram rail_urban rail rail_electric rail_fast ship" speed="36.11" length="70.00" width="3.50" customShape="1" shape="-138.93,108.39 -105.51,104.28 -91.12,102.18 -78.79,100.02 -69.72,98.12"/>
    </edge>
    <edge id="137" from="70" to="69" priority="3" type="highway.residential" spreadType="center" length="33.15" shape="-132.75,230.10 -193.45,257.36">
        <lane id="137_0" index="0" disallow="pedestrian tram rail_urban rail rail_electric rail_fast ship" speed="36.11" length="33.15" width="3.50" customShape="1" shape="-150.73,240.88 -155.73,241.98 -167.62,244.81 -182.86,249.02"/>
    </edge>
    <edge id="138" from="69" to="70" priority="3" type="highway.residential" spreadType="center" length="33.34" shape="-194.88,254.16 -134.18,226.91">
        <lane id="138_0" index="0" disallow="pedestrian tram rail_urban rail rail_electric rail_fast ship" speed="36.11" length="33.34" width="3.50" customShape="1" shape="-183.79,245.65 -168.48,241.42 -156.51,238.57 -151.48,237.46"/>
    </edge>
    <edge id="140" from="72" to="70" priority="3" type="highway.residential" spreadType="center" length="14.59" shape="-85.24,218.08 -133.08,230.22">
        <lane id="140_0" index="0" disallow="pedestrian tram rail_urban rail rail_electric rail_fast ship" speed="36.11" length="14.59" width="3.50" customShape="1" shape="-98.66,228.90 -105.77,230.57 -112.87,232.23"/>
    </edge>
    <edge id="141" from="70" to="72" priority="3" type="highway.residential" spreadType="center" length="14.57" shape="-133.94,226.83 -86.10,214.69">
        <lane id="141_0" index="0" disallow="pedestrian tram rail_urban rail rail_electric rail_fast ship" speed="36.11" length="14.57" width="3.50" customShape="1" shape="-113.64,228.82 -106.57,227.16 -99.46,225.49"/>
    </edge>
    <edge id="143" from="52" to="72" priority="3" type="highway.residential" spreadType="center" length="24.71" shape="-51.78,217.10 -85.77,218.15">
        <lane id="143_0" index="0" disallow="pedestrian tram rail_urban rail rail_electric rail_fast ship" speed="36.11" length="24.71" width="3.50" customShape="1" shape="-51.78,217.10 -56.62,218.37 -58.80,218.94 -75.68,223.39"/>
    </edge>
    <edge id="158" from="76" to="62" priority="3" type="highway.residential" spreadType="center" length="70.00" shape="-213.00,118.99 -300.78,135.63">
        <lane id="158_0" index="0" disallow="pedestrian tram rail_urban rail rail_electric rail_fast ship" speed="36.11" length="70.00" width="3.50" customShape="1" shape="-232.35,121.16 -244.27,122.83 -253.65,124.50 -269.36,127.81 -284.98,131.50 -300.78,135.63"/>
    </edge>
    <edge id="159" from="64" to="76" priority="3" type="highway.residential" spreadType="center" length="70.00" shape="-301.23,132.12 -213.65,115.56">
        <lane id="159_0" index="0" disallow="pedestrian tram rail_urban rail rail_electric rail_fast ship" speed="36.11" length="70.00" width="3.50" customShape="1" shape="-301.23,132.12 -285.79,128.09 -270.08,124.39 -254.27,121.06 -244.80,119.37 -232.79,117.69"/>
    </edge>
    <edge id="161" from="71" to="76" priority="3" type="highway.residential" spreadType="center" length="15.32" shape="-157.81,114.22 -213.27,119.03">
        <lane id="161_0" index="0" disallow="pedestrian tram rail_urban rail rail_electric rail_fast ship" speed="36.11" length="15.32" width="3.50" customShape="1" shape="-178.20,116.06 -185.84,116.63 -193.48,117.21"/>
    </edge>
    <edge id="162" from="76" to="71" priority="3" type="highway.residential" spreadType="center" length="15.32" shape="-213.57,115.54 -158.12,110.74">
        <lane id="162_0" index="0" disallow="pedestrian tram rail_urban rail rail_electric rail_fast ship" speed="36.11" length="15.32" width="3.50" customShape="1" shape="-193.74,113.72 -186.10,113.14 -178.46,112.57"/>
    </edge>
    <edge id="167" from="70" to="71" priority="3" type="highway.residential" spreadType="center" length="85.44" shape="-135.22,228.88 -159.68,112.82">
        <lane id="167_0" index="0" disallow="pedestrian tram rail_urban rail rail_electric rail_fast ship" speed="36.11" length="85.44" width="3.50" customShape="1" shape="-137.86,216.24 -146.94,174.49 -156.01,132.75"/>
    </edge>
    <edge id="168" from="71" to="70" priority="3" type="highway.residential" spreadType="center" length="85.44" shape="-156.26,112.09 -131.80,228.16">
        <lane id="168_0" index="0" disallow="pedestrian tram rail_urban rail rail_electric rail_fast ship" speed="36.11" length="85.44" width="3.50" customShape="1" shape="-152.59,132.01 -143.52,173.75 -134.45,215.50"/>
    </edge>
    <edge id="188" from="75" to="32" priority="3" type="highway.residential" spreadType="center" length="70.01" shape="-163.05,307.41 -82.01,285.49">
        <lane id="188_0" index="0" disallow="pedestrian tram rail_urban rail rail_electric rail_fast ship" speed="36.11" length="70.01" width="3.50" customShape="1" shape="-149.62,303.59 -138.35,300.89 -120.27,296.41 -103.28,291.75 -82.01,285.49"/>
    </edge>
    <edge id="189" from="44" to="75" priority="3" type="highway.residential" spreadType="center" length="70.00" shape="-81.19,288.90 -162.13,310.78">