<routes>
	<vehicle depart="0.1" departLane="0" departPos="69.77965160452337" departSpeed="0.0" id="318" type="bicycle">
		<route edges="200 26"/>
	</vehicle>
	<vehicle depart="0.1" departLane="0" departPos="38.45568038939397" departSpeed="7.4230511" id="3112" type="bicycle">
		<route edges=":74_2 30 33"/>
	</vehicle>
	<vehicle depart="0.1" departLane="0" departPos="8.690416546731534" departSpeed="0.093472435" id="319" type="passenger">
		<route edges=":69_3 29"/>
	</vehicle>
	<vehicle depart="0.1" departLane="0" departPos="11.213210092981685" departSpeed="0.48530093" id="325" type="passenger">
		<route edges=":74_5 30"/>
	</vehicle>
	<vehicle depart="0.1" departLane="0" departPos="66.91732499054879" departSpeed="1.7445679" id="328" type="passenger">
		<route edges="200 26"/>
	</vehicle>
	<vehicle depart="0.1" departLane="0" departPos="2.5" departSpeed="2.0453168" id="343" type="passenger">
		<route edges="32 29"/>
	</vehicle>
	<vehicle depart="0.1" departLane="0" departPos="8.767393228352415" departSpeed="14.98517" id="3121" type="passenger">
		<route edges=":69_5 33 188"/>
	</vehicle>
	<vehicle depart="0.1" departLane="0" departPos="2.5" departSpeed="11.10371" id="3123" type="passenger">
		<route edges=":74_2 30"/>
	</vehicle>
	<vehicle depart="0.1" departLane="0" departPos="43.192032639429" departSpeed="12.76333" id="3127" type="passenger">
		<route edges="27 30"/>
	</vehicle>
	<vehicle depart="0.1" departLane="0" departPos="3.75" departSpeed="0.17265076" id="31" type="truck">
		<route edges=":69_1 138"/>
	</vehicle>
</routes>
