<routes>
	<vehicle depart="0.1" departLane="0" departPos="38.05968330402101" departSpeed="0.0" id="31" type="passenger">
		<route edges="44433 44381"/>
	</vehicle>
	<vehicle depart="0.1" departLane="0" departPos="45.56070477896408" departSpeed="0.0" id="313" type="passenger">
		<route edges="44433 44381"/>
	</vehicle>
	<vehicle depart="0.1" departLane="0" departPos="47.6535231263657" departSpeed="2.0095997" id="334" type="passenger">
		<route edges="44380 44434"/>
	</vehicle>
	<vehicle depart="0.1" departLane="0" departPos="37.39816928651342" departSpeed="1.7643986" id="342" type="passenger">
		<route edges="44380 44430"/>
	</vehicle>
	<vehicle depart="0.1" departLane="0" departPos="18.872461897810666" departSpeed="4.1300857" id="347" type="passenger">
		<route edges="44380 44430"/>
	</vehicle>
	<vehicle depart="0.1" departLane="0" departPos="7.427925433218323" departSpeed="4.2654285" id="353" type="passenger">
		<route edges="44381 44590"/>
	</vehicle>
	<vehicle depart="0.1" departLane="0" departPos="2.5" departSpeed="1.3659003" id="363" type="passenger">
		<route edges="44378 44381"/>
	</vehicle>
	<vehicle depart="0.1" departLane="0" departPos="23.28500496408119" departSpeed="2.0944897" id="367" type="passenger">
		<route edges=":51_4 44381"/>
	</vehicle>
	<vehicle depart="0.1" departLane="0" departPos="11.612868825683272" departSpeed="2.2097035" id="372" type="passenger">
		<route edges=":51_4 44381"/>
	</vehicle>
	<vehicle depart="0.1" departLane="0" departPos="14.07920091687001" departSpeed="0.38896395" id="32" type="truck">
		<route edges=":51_5 44381"/>
	</vehicle>
</routes>
