<routes>
	<vehicle depart="0.1" departLane="0" departPos="68.40728398388374" departSpeed="1.244311" id="310" type="bicycle">
		<route edges="107296 108222"/>
	</vehicle>
	<vehicle depart="0.1" departLane="0" departPos="19.924521290825503" departSpeed="6.3158189" id="312" type="bicycle">
		<route edges=":41_3 108223 110884"/>
	</vehicle>
	<vehicle depart="0.1" departLane="0" departPos="25.782065912786347" departSpeed="0.9903916" id="31" type="passenger">
		<route edges=":40_1 108222"/>
	</vehicle>
	<vehicle depart="0.1" departLane="0" departPos="14.497196630049952" departSpeed="0.29236869" id="37" type="passenger">
		<route edges=":40_1 108222"/>
	</vehicle>
	<vehicle depart="0.1" departLane="0" departPos="24.551806353239563" departSpeed="2.0567904" id="311" type="passenger">
		<route edges=":41_1 107691"/>
	</vehicle>
	<vehicle depart="0.1" departLane="0" departPos="69.92523774350745" departSpeed="1.2957001" id="315" type="passenger">
		<route edges="107296 108222"/>
	</vehicle>
	<vehicle depart="0.1" departLane="0" departPos="61.05694239263504" departSpeed="0.24293814" id="326" type="passenger">
		<route edges="107296 110884"/>
	</vehicle>
	<vehicle depart="0.1" departLane="0" departPos="28.92701248956617" departSpeed="11.093088" id="333" type="passenger">
		<route edges=":39_2 107692 108223"/>
	</vehicle>
	<vehicle depart="0.1" departLane="0" departPos="58.93990695376083" departSpeed="12.275491" id="339" type="passenger">
		<route edges="107689 107692"/>
	</vehicle>
</routes>
