<!-- generated on 2020-12-18 15:59:54.791246 by ipykernel_launcher.py v1_2_0+5214-53edc58fcd
-->
<edges>
	<edge from="1" function="normal" id="3431" length="7.746632106922343" numLanes="5" priority="1" speed="36.11111111111111" spreadType="center" to="2">
		<lane allow="moped bicycle pedestrian custom1 trailer evehicle rail_urban ship private truck vip custom2 authority delivery rail_electric taxi tram army hov coach motorcycle passenger bus rail emergency" index="0" length="7.746632106922343" shape="15.790049999999999,73.2106 12.24795,66.20009999999999" speed="36.11111111111111" width="2.841755522559951"/>
		<lane allow="moped bicycle pedestrian custom1 trailer evehicle rail_urban ship private truck vip custom2 authority delivery rail_electric taxi tram army hov coach motorcycle passenger bus rail emergency" index="1" length="7.746632106922343" shape="18.417299999999997,71.86189999999999 14.934450000000002,64.854" speed="36.11111111111111" width="3.064659380746909"/>
		<lane allow="moped bicycle pedestrian custom1 trailer evehicle rail_urban ship private truck vip custom2 authority delivery rail_electric taxi tram army hov coach motorcycle passenger bus rail emergency" index="2" length="7.746632106922343" shape="21.128349999999998,70.47014999999999 17.6807,63.4955" speed="36.11111111111111" width="3.0301778330652454"/>
		<lane allow="moped bicycle pedestrian custom1 trailer evehicle rail_urban ship private truck vip custom2 authority delivery rail_electric taxi tram army hov coach motorcycle passenger bus rail emergency" index="3" length="7.746632106922343" shape="23.8466,69.0747 20.4152,62.1295" speed="36.11111111111111" width="3.0528378404363323"/>
		<lane allow="moped bicycle pedestrian custom1 trailer evehicle rail_urban ship private truck vip custom2 authority delivery rail_electric taxi tram army hov coach motorcycle passenger bus rail emergency" index="4" length="7.746632106922343" shape="26.5719,67.67564999999999 23.14095,60.6867" speed="36.11111111111111" width="3.0460097258544714"/>
	</edge>
	<edge from="2" function="normal" id="3438" length="8.438893355322135" numLanes="6" priority="1" speed="36.11111111111111" spreadType="center" to="3">
		<lane allow="moped bicycle pedestrian custom1 trailer evehicle rail_urban ship private truck vip custom2 authority delivery rail_electric taxi tram army hov coach motorcycle passenger bus rail emergency" index="0" length="8.438893355322135" shape="12.24795,66.20009999999999 5.5731,59.92335" speed="36.11111111111111" width="2.9435128146485137"/>
		<lane allow="moped bicycle pedestrian custom1 trailer evehicle rail_urban ship private truck vip custom2 authority delivery rail_electric taxi tram army hov coach motorcycle passenger bus rail emergency" index="1" length="8.438893355322135" shape="12.24795,66.20009999999999 8.4144,58.590450000000004" speed="36.11111111111111" width="2.9435128146485137"/>
		<lane allow="moped bicycle pedestrian custom1 trailer evehicle rail_urban ship private truck vip custom2 authority delivery rail_electric taxi tram army hov coach motorcycle passenger bus rail emergency" index="2" length="8.438893355322135" shape="14.934450000000002,64.854 11.16295,57.2589" speed="36.11111111111111" width="3.0546153096584847"/>
		<lane allow="moped bicycle pedestrian custom1 trailer evehicle rail_urban ship private truck vip custom2 authority delivery rail_electric taxi tram army hov coach motorcycle passenger bus rail emergency" index="3" length="8.438893355322135" shape="17.6807,63.4955 13.894,55.91605" speed="36.11111111111111" width="3.032458014548595"/>
		<lane allow="moped bicycle pedestrian custom1 trailer evehicle rail_urban ship private truck vip custom2 authority delivery rail_electric taxi tram army hov coach motorcycle passenger bus rail emergency" index="4" length="8.438893355322135" shape="20.4152,62.1295 16.6129,54.53485" speed="36.11111111111111" width="3.0528378404363323"/>
		<lane allow="moped bicycle pedestrian custom1 trailer evehicle rail_urban ship private truck vip custom2 authority delivery rail_electric taxi tram army hov coach motorcycle passenger bus rail emergency" index="5" length="8.438893355322135" shape="23.14095,60.6867 19.4008,53.1219" speed="36.11111111111111" width="3.115279160845785"/>
	</edge>
	<edge from="3" function="normal" id="3450" length="24.494871241480368" numLanes="6" priority="1" speed="36.11111111111111" spreadType="center" to="4">
		<lane allow="moped bicycle pedestrian custom1 trailer evehicle rail_urban ship private truck vip custom2 authority delivery rail_electric taxi tram army hov coach motorcycle passenger bus rail emergency" index="0" length="24.494871241480368" shape="5.5731,59.92335 2.4084000000000003,53.6893 -1.3799,46.00215 -5.4656,38.05755" speed="36.11111111111111" width="3.2241062653082633"/>
		<lane allow="moped bicycle pedestrian custom1 trailer evehicle rail_urban ship private truck vip custom2 authority delivery rail_electric taxi tram army hov coach motorcycle passenger bus rail emergency" index="1" length="24.494871241480368" shape="8.4144,58.590450000000004 5.4069,52.53885 1.5839500000000002,44.590599999999995 -2.5199,36.45385" speed="36.11111111111111" width="2.8665619215359706"/>
		<lane allow="moped bicycle pedestrian custom1 trailer evehicle rail_urban ship private truck vip custom2 authority delivery rail_electric taxi tram army hov coach motorcycle passenger bus rail emergency" index="2" length="24.494871241480368" shape="11.16295,57.2589 8.139949999999999,51.20745 4.28615,43.25965 0.12260000000000004,35.1353" speed="36.11111111111111" width="3.0042210737560566"/>
		<lane allow="moped bicycle pedestrian custom1 trailer evehicle rail_urban ship private truck vip custom2 authority delivery rail_electric taxi tram army hov coach motorcycle passenger bus rail emergency" index="3" length="24.494871241480368" shape="13.894,55.91605 10.8076,49.7578 6.9229,41.8104 2.9072500000000003,33.7609" speed="36.11111111111111" width="3.018987572018143"/>
		<lane allow="moped bicycle pedestrian custom1 trailer evehicle rail_urban ship private truck vip custom2 authority delivery rail_electric taxi tram army hov coach motorcycle passenger bus rail emergency" index="4" length="24.494871241480368" shape="16.6129,54.53485 13.49445,48.30015 9.60975,40.35275 5.67035,32.367599999999996" speed="36.11111111111111" width="3.018395509206835"/>
		<lane allow="moped bicycle pedestrian custom1 trailer evehicle rail_urban ship private truck vip custom2 authority delivery rail_electric taxi tram army hov coach motorcycle passenger bus rail emergency" index="5" length="24.494871241480368" shape="19.4008,53.1219 16.18835,46.79625 12.303650000000001,38.84885 8.36615,30.99445" speed="36.11111111111111" width="3.032368793534191"/>
	</edge>
	<edge from="4" function="normal" id="3664" length="45.621593371778964" numLanes="2" priority="1" speed="36.11111111111111" spreadType="center" to="5">
		<lane allow="moped bicycle pedestrian custom1 trailer evehicle rail_urban ship private vip custom2 authority delivery rail_electric taxi tram army hov coach motorcycle passenger rail emergency" index="0" length="45.621593371778964" shape="5.67035,32.367599999999996 1.9120000000000001,24.9862 -0.22340000000000004,20.578249999999997 -1.2883,18.04635 -1.76175,15.9985 -1.8895499999999998,13.633099999999999 -1.4481000000000002,10.8464 -0.7129999999999999,8.2802 0.35345000000000004,6.34145 1.7663000000000002,4.19505 4.88655,1.2201 10.93115,-2.2626 19.9439,-6.9773" speed="36.11111111111111" width="2.934935747167219"/>
		<lane allow="moped bicycle pedestrian custom1 trailer evehicle rail_urban ship private vip custom2 authority delivery rail_electric taxi tram army hov coach motorcycle passenger rail emergency" index="1" length="45.621593371778964" shape="8.36615,30.99445 5.01475,24.218249999999998 3.40685,20.17285 2.74305,17.781599999999997 2.4667000000000003,16.00025 2.2986999999999997,13.96745 2.52795,11.8597 3.1761999999999997,10.09385 4.14255,8.5128 5.4685500000000005,6.893549999999999 7.9414,4.32515 13.206,0.5668 21.48875,-3.8857" speed="36.11111111111111" width="3.032368793534191"/>
	</edge>
	<edge from="5" function="normal" id="3495" length="15.184501575044738" numLanes="3" priority="1" speed="36.11111111111111" spreadType="center" to="6">
		<lane allow="moped bicycle pedestrian custom1 trailer evehicle rail_urban ship private truck vip custom2 authority delivery rail_electric taxi tram army hov coach motorcycle passenger bus rail emergency" index="0" length="15.184501575044738" shape="18.32085,-10.305399999999999 27.04815,-14.600449999999999 31.955949999999998,-17.01575" speed="36.11111111111111" width="3.8765859644795713"/>
		<lane allow="moped bicycle pedestrian custom1 trailer evehicle rail_urban ship private truck vip custom2 authority delivery rail_electric taxi tram army hov coach motorcycle passenger bus rail emergency" index="1" length="15.184501575044738" shape="19.9439,-6.9773 28.67105,-11.27085 33.58965,-13.69065" speed="36.11111111111111" width="3.5117895381130118"/>
		<lane allow="moped bicycle pedestrian custom1 trailer evehicle rail_urban ship private truck vip custom2 authority delivery rail_electric taxi tram army hov coach motorcycle passenger bus rail emergency" index="2" length="15.184501575044738" shape="21.48875,-3.8857 30.16755,-8.1543 35.11435,-10.58735" speed="36.11111111111111" width="3.3823138145358436"/>
	</edge>
	<edge from="4" function="normal" id="3610" length="13.55388243428797" numLanes="3" priority="1" speed="36.11111111111111" spreadType="center" to="7">
		<lane allow="moped bicycle pedestrian custom1 trailer evehicle rail_urban ship private truck vip custom2 authority delivery rail_electric taxi tram army hov coach motorcycle passenger bus rail emergency" index="0" length="13.55388243428797" shape="-2.5199,36.45385 -8.5566,24.27795" speed="36.11111111111111" width="2.8665619215359706"/>
		<lane allow="moped bicycle pedestrian custom1 trailer evehicle rail_urban ship private truck vip custom2 authority delivery rail_electric taxi tram army hov coach motorcycle passenger bus rail emergency" index="1" length="13.55388243428797" shape="0.12260000000000004,35.1353 -5.82765,22.9441" speed="36.11111111111111" width="3.0173836033888692"/>
		<lane allow="moped bicycle pedestrian custom1 trailer evehicle rail_urban ship private truck vip custom2 authority delivery rail_electric taxi tram army hov coach motorcycle passenger bus rail emergency" index="2" length="13.55388243428797" shape="2.9072500000000003,33.7609 -3.0715500000000002,21.59695" speed="36.11111111111111" width="3.118054550517038"/>
	</edge>
	<edge from="7" function="normal" id="3646" length="16.50963275573512" numLanes="3" priority="1" speed="36.11111111111111" spreadType="center" to="8">
		<lane allow="moped bicycle pedestrian custom1 trailer evehicle rail_urban ship private truck vip custom2 authority delivery rail_electric taxi tram army hov coach motorcycle passenger bus rail emergency" index="0" length="16.50963275573512" shape="-8.5566,24.27795 -9.9906,21.385550000000002 -11.623850000000001,18.091 -13.02895,15.257100000000001 -14.414349999999999,12.462700000000002 -15.889949999999999,9.4864" speed="36.11111111111111" width="3.0575892938718896"/>
		<lane allow="moped bicycle pedestrian custom1 trailer evehicle rail_urban ship private truck vip custom2 authority delivery rail_electric taxi tram army hov coach motorcycle passenger bus rail emergency" index="1" length="16.50963275573512" shape="-5.82765,22.9441 -7.2569,20.015900000000002 -8.87115,16.708399999999997 -10.2622,13.8603 -11.6421,11.03485 -13.1109,8.0276" speed="36.11111111111111" width="2.990382731357308"/>
		<lane allow="moped bicycle pedestrian custom1 trailer evehicle rail_urban ship private truck vip custom2 authority delivery rail_electric taxi tram army hov coach motorcycle passenger bus rail emergency" index="2" length="16.50963275573512" shape="-3.0715500000000002,21.59695 -4.52215,18.645699999999998 -6.1472999999999995,15.3393 -7.5483,12.490200000000002 -8.9467,9.646550000000001 -10.43385,6.622450000000001" speed="36.11111111111111" width="3.056448910091579"/>
	</edge>
	<edge from="8" function="normal" id="3626" length="12.19057411086533" numLanes="3" priority="1" speed="36.11111111111111" spreadType="center" to="9">
		<lane allow="moped bicycle pedestrian custom1 trailer evehicle rail_urban ship private truck vip custom2 authority delivery rail_electric taxi tram army hov coach motorcycle passenger bus rail emergency" index="0" length="12.19057411086533" shape="-15.889949999999999,9.4864 -21.30525,-1.4353500000000001" speed="36.11111111111111" width="3.2869467488841364"/>
		<lane allow="moped bicycle pedestrian custom1 trailer evehicle rail_urban ship private truck vip custom2 authority delivery rail_electric taxi tram army hov coach motorcycle passenger bus rail emergency" index="1" length="12.19057411086533" shape="-13.1109,8.0276 -18.461599999999997,-2.928" speed="36.11111111111111" width="2.9693589611227544"/>
		<lane allow="moped bicycle pedestrian custom1 trailer evehicle rail_urban ship private truck vip custom2 authority delivery rail_electric taxi tram army hov coach motorcycle passenger bus rail emergency" index="2" length="12.19057411086533" shape="-10.43385,6.622450000000001 -15.81355,-4.31795" speed="36.11111111111111" width="3.0119886487169887"/>
	</edge>
	<edge from="9" function="normal" id="3542" length="42.04503365774769" numLanes="3" priority="1" speed="36.11111111111111" spreadType="center" to="10">
		<lane allow="moped bicycle pedestrian custom1 trailer evehicle rail_urban ship private truck vip custom2 authority delivery rail_electric taxi tram army hov coach motorcycle passenger rail emergency" index="0" length="42.04503365774769" shape="-21.30525,-1.4353500000000001 -25.466549999999998,-9.97405 -29.5198,-18.904049999999998 -33.29185,-27.62255 -36.9166,-36.8665 -38.23435,-40.07965" speed="36.11111111111111" width="2.8481341330772993"/>
		<lane allow="moped bicycle pedestrian custom1 trailer evehicle rail_urban ship private truck vip custom2 authority delivery rail_electric taxi tram army hov coach motorcycle passenger bus rail emergency" index="1" length="42.04503365774769" shape="-18.461599999999997,-2.928 -22.705,-11.482800000000001 -26.78715,-20.2662 -30.5278,-28.9544 -34.181799999999996,-38.0747 -35.52785,-41.41325" speed="36.11111111111111" width="2.9693589611227544"/>
		<lane allow="moped bicycle pedestrian custom1 trailer evehicle rail_urban ship private truck vip custom2 authority delivery rail_electric taxi tram army hov coach motorcycle passenger bus rail emergency" index="2" length="42.04503365774769" shape="-15.81355,-4.31795 -20.03635,-12.997900000000001 -24.0867,-21.7202 -27.858249999999998,-30.408 -31.353099999999998,-39.207350000000005 -32.7658,-42.7742" speed="36.11111111111111" width="2.9622015478356594"/>
	</edge>
	<edge from="4" function="normal" id="3604" length="15.837809304392046" numLanes="1" priority="1" speed="36.11111111111111" spreadType="center" to="11">
		<lane allow="moped bicycle pedestrian custom1 trailer evehicle rail_urban ship private vip custom2 authority delivery rail_electric taxi tram army hov coach motorcycle passenger rail emergency" index="0" length="15.837809304392046" shape="-5.4656,38.05755 -6.5078499999999995,36.78345 -7.7666,35.2316 -9.1546,33.835350000000005 -11.035,32.60005 -12.7362,32.01625 -14.532399999999999,31.818550000000002 -16.454099999999997,32.03805 -18.7701,32.79025" speed="36.11111111111111" width="3.8433909311960455"/>
	</edge>
	<edge from="11" function="normal" id="3487" length="21.428343053831995" numLanes="3" priority="1" speed="36.11111111111111" spreadType="center" to="12">
		<lane allow="moped bicycle pedestrian custom1 trailer evehicle rail_urban ship private truck vip custom2 authority delivery rail_electric taxi tram army hov coach motorcycle passenger bus rail emergency" index="0" length="21.428343053831995" shape="-18.7701,32.79025 -27.983600000000003,37.22965 -36.820499999999996,42.04835 -37.81685,42.59354999999999" speed="36.11111111111111" width="4.576431161942677"/>
		<lane allow="moped bicycle pedestrian custom1 trailer evehicle rail_urban ship private truck vip custom2 authority delivery rail_electric taxi tram army hov coach motorcycle passenger bus rail emergency" index="1" length="21.428343053831995" shape="-20.4874,28.3363 -29.877850000000002,33.37835 -38.5243,38.54835 -39.551249999999996,39.1648" speed="36.11111111111111" width="3.1084813092569776"/>
		<lane allow="moped bicycle pedestrian custom1 trailer evehicle rail_urban ship private truck vip custom2 authority delivery rail_electric taxi tram army hov coach motorcycle passenger bus rail emergency" index="2" length="21.428343053831995" shape="-21.6231,25.1052 -31.4048,30.35285 -40.051249999999996,35.522850000000005 -41.08085,36.140950000000004" speed="36.11111111111111" width="3.664585112942531"/>
	</edge>
	<edge from="13" function="normal" id="3479" length="22.651817425696017" numLanes="3" priority="1" speed="36.11111111111111" spreadType="center" to="14">
		<lane allow="moped bicycle pedestrian custom1 trailer evehicle rail_urban ship private truck vip custom2 authority delivery rail_electric taxi tram army hov coach motorcycle passenger bus rail emergency" index="0" length="22.651817425696017" shape="-45.94415,26.52665 -44.8016,25.94875 -35.221599999999995,21.1964 -25.611150000000002,16.41285" speed="36.11111111111111" width="3.2311980966817857"/>
		<lane allow="moped bicycle pedestrian custom1 trailer evehicle rail_urban ship private truck vip custom2 authority delivery rail_electric taxi tram army hov coach motorcycle passenger rail emergency" index="1" length="22.651817425696017" shape="-44.532650000000004,29.317050000000002 -43.370850000000004,28.72935 -33.79085,23.977 -24.180349999999997,19.19345" speed="36.11111111111111" width="3.0229731226062873"/>
		<lane allow="moped bicycle pedestrian custom1 trailer evehicle rail_urban ship private truck vip custom2 authority delivery rail_electric taxi tram army hov coach motorcycle passenger rail emergency" index="2" length="22.651817425696017" shape="-43.1601,32.03045 -41.9645,31.42565 -32.3845,26.673299999999998 -22.8736,21.9527" speed="36.11111111111111" width="3.0586164927953936"/>
	</edge>
	<edge from="14" function="normal" id="3672" length="43.42964317851891" numLanes="1" priority="1" speed="36.11111111111111" spreadType="center" to="15">
		<lane allow="moped bicycle pedestrian custom1 trailer evehicle rail_urban ship private vip custom2 authority delivery rail_electric taxi tram army hov coach motorcycle passenger rail emergency" index="0" length="43.42964317851891" shape="-22.8736,21.9527 -17.7164,19.41235 -14.133600000000001,17.92785 -10.287749999999999,16.5692 -7.50705,15.5989 -5.021100000000001,15.102050000000002 -2.78625,14.88965 -0.45005,15.00665 1.19445,15.14105 2.3039,15.397300000000001 3.24365,15.9803 4.1629000000000005,17.3305 5.3186,19.25885 7.98605,23.496299999999998 9.5598,26.54805 11.03155,29.6602" speed="36.11111111111111" width="2.917182176347577"/>
	</edge>
	<edge from="15" function="normal" id="3456" length="24.710920579823167" numLanes="3" priority="1" speed="36.11111111111111" spreadType="center" to="16">
		<lane allow="moped bicycle pedestrian custom1 trailer evehicle rail_urban ship private truck vip custom2 authority delivery rail_electric taxi tram army hov coach motorcycle passenger bus rail emergency" index="0" length="24.710920579823167" shape="16.5582,26.9005 20.154,34.0941 24.007350000000002,42.0112 27.369999999999997,49.119600000000005" speed="36.11111111111111" width="3.0476685974692197"/>
		<lane allow="moped bicycle pedestrian custom1 trailer evehicle rail_urban ship private truck vip custom2 authority delivery rail_electric taxi tram army hov coach motorcycle passenger bus rail emergency" index="1" length="24.710920579823167" shape="13.72935,28.29475 17.58945,35.86165 21.267699999999998,43.42725 24.70655,50.4577" speed="36.11111111111111" width="2.9148241130469597"/>
		<lane allow="moped bicycle pedestrian custom1 trailer evehicle rail_urban ship private truck vip custom2 authority delivery rail_electric taxi tram army hov coach motorcycle passenger bus rail emergency" index="2" length="24.710920579823167" shape="11.03155,29.6602 14.960049999999999,37.422399999999996 18.7485,45.12495 22.12005,51.771550000000005" speed="36.11111111111111" width="2.888004380190582"/>
	</edge>
	<edge from="16" function="normal" id="3462" length="8.466645302154799" numLanes="3" priority="1" speed="36.11111111111111" spreadType="center" to="17">
		<lane allow="moped bicycle pedestrian custom1 trailer evehicle rail_urban ship private truck vip custom2 authority delivery rail_electric taxi tram army hov coach motorcycle passenger bus rail emergency" index="0" length="8.466645302154799" shape="27.369999999999997,49.119600000000005 31.2493,56.68235" speed="36.11111111111111" width="3.0476685974692197"/>
		<lane allow="moped bicycle pedestrian custom1 trailer evehicle rail_urban ship private truck vip custom2 authority delivery rail_electric taxi tram army hov coach motorcycle passenger bus rail emergency" index="1" length="8.466645302154799" shape="24.70655,50.4577 28.52465,58.0674" speed="36.11111111111111" width="2.9148241130469597"/>
		<lane allow="moped bicycle pedestrian custom1 trailer evehicle rail_urban ship private truck vip custom2 authority delivery rail_electric taxi tram army hov coach motorcycle passenger bus rail emergency" index="2" length="8.466645302154799" shape="22.12005,51.771550000000005 25.8607,59.36705" speed="36.11111111111111" width="2.888004380190582"/>
	</edge>
	<edge from="17" function="normal" id="3470" length="7.644506528383632" numLanes="3" priority="1" speed="36.11111111111111" spreadType="center" to="18">
		<lane allow="moped bicycle pedestrian custom1 trailer evehicle rail_urban ship private truck vip custom2 authority delivery rail_electric taxi tram army hov coach motorcycle passenger bus rail emergency" index="0" length="7.644506528383632" shape="31.2493,56.68235 34.640699999999995,63.5334" speed="36.11111111111111" width="3.0549991620293464"/>
		<lane allow="moped bicycle pedestrian custom1 trailer evehicle rail_urban ship private truck vip custom2 authority delivery rail_electric taxi tram army hov coach motorcycle passenger bus rail emergency" index="1" length="7.644506528383632" shape="28.52465,58.0674 31.94015,64.91975" speed="36.11111111111111" width="2.998011102381041"/>
		<lane allow="moped bicycle pedestrian custom1 trailer evehicle rail_urban ship private truck vip custom2 authority delivery rail_electric taxi tram army hov coach motorcycle passenger bus rail emergency" index="2" length="7.644506528383632" shape="25.8607,59.36705 29.26265,66.29429999999999" speed="36.11111111111111" width="2.9350875710956243"/>
	</edge>
	<edge from="14" function="normal" id="3636" length="10.130444963203734" numLanes="2" priority="1" speed="36.11111111111111" spreadType="center" to="19">
		<lane allow="moped bicycle pedestrian custom1 trailer evehicle rail_urban ship private truck vip custom2 authority delivery rail_electric taxi tram army hov coach motorcycle passenger bus rail emergency" index="0" length="10.130444963203734" shape="-25.611150000000002,16.41285 -16.60005,11.7275" speed="36.11111111111111" width="3.232186618993402"/>
		<lane allow="moped bicycle pedestrian custom1 trailer evehicle rail_urban ship private truck vip custom2 authority delivery rail_electric taxi tram army hov coach motorcycle passenger bus rail emergency" index="1" length="10.130444963203734" shape="-24.180349999999997,19.19345 -15.155650000000001,14.5912" speed="36.11111111111111" width="3.0254656269738063"/>
	</edge>
	<edge from="19" function="normal" id="3658" length="24.83401336288985" numLanes="2" priority="1" speed="36.11111111111111" spreadType="center" to="20">
		<lane allow="moped bicycle pedestrian custom1 trailer evehicle rail_urban ship private truck vip custom2 authority delivery rail_electric taxi tram army hov coach motorcycle passenger bus rail emergency" index="0" length="24.83401336288985" shape="-16.60005,11.7275 -13.704249999999998,10.2216 -11.04875,8.84085 -8.331800000000001,7.4281500000000005 -5.343500000000001,5.87425 -2.64185,4.46935 0.002850000000000019,3.0942000000000003 2.7184,1.6822000000000001 5.49015,0.24095" speed="36.11111111111111" width="3.3089087884074417"/>
		<lane allow="moped bicycle pedestrian custom1 trailer evehicle rail_urban ship private truck vip custom2 authority delivery rail_electric taxi tram army hov coach motorcycle passenger bus rail emergency" index="1" length="24.83401336288985" shape="-15.155650000000001,14.5912 -12.28765,13.1286 -9.61665,11.76655 -6.87835,10.3702 -3.9137500000000003,8.858450000000001 -1.2033,7.4761999999999995 1.44665,6.12495 4.181100000000001,4.730650000000001 6.9679,3.3095" speed="36.11111111111111" width="3.105783426126168"/>
	</edge>
	<edge from="20" function="normal" id="3676" length="16.155928389455166" numLanes="2" priority="1" speed="36.11111111111111" spreadType="center" to="5">
		<lane allow="moped bicycle pedestrian custom1 trailer evehicle rail_urban ship private truck vip custom2 authority delivery rail_electric taxi tram army hov coach motorcycle passenger bus rail emergency" index="0" length="16.155928389455166" shape="5.49015,0.24095 11.50985,-2.7653000000000003 19.9439,-6.9773" speed="36.11111111111111" width="3.5034549033775217"/>
		<lane allow="moped bicycle pedestrian custom1 trailer evehicle rail_urban ship private truck vip custom2 authority delivery rail_electric taxi tram army hov coach motorcycle passenger bus rail emergency" index="1" length="16.155928389455166" shape="6.9679,3.3095 12.99255,0.32420000000000004 21.48875,-3.8857" speed="36.11111111111111" width="3.3082245268421553"/>
	</edge>
	<edge from="14" function="normal" id="3600" length="24.197467511365538" numLanes="1" priority="1" speed="36.11111111111111" spreadType="center" to="9">
		<lane allow="moped bicycle pedestrian custom1 trailer evehicle rail_urban ship private vip custom2 authority delivery rail_electric taxi tram army hov coach motorcycle passenger rail emergency" index="0" length="24.197467511365538" shape="-25.611150000000002,16.41285 -21.12285,14.017900000000001 -19.129849999999998,12.8278 -17.5268,11.917200000000001 -16.7837,11.43725 -16.3596,10.84965 -16.3238,10.0427 -16.731,8.6311 -17.5319,6.66495 -18.512349999999998,4.5666 -21.30525,-1.4353500000000001" speed="36.11111111111111" width="3.232186618993402"/>
	</edge>
	<edge from="21" function="normal" id="3502" length="11.539017429977408" numLanes="2" priority="1" speed="36.11111111111111" spreadType="center" to="22">
		<lane allow="moped bicycle pedestrian custom1 trailer evehicle rail_urban ship private truck vip custom2 authority delivery rail_electric taxi tram army hov coach motorcycle passenger bus rail emergency" index="0" length="11.539017429977408" shape="39.657849999999996,-1.3401 34.60815,1.1282999999999999 29.26375,3.74085" speed="36.11111111111111" width="3.607231317783765"/>
		<lane allow="moped bicycle pedestrian custom1 trailer evehicle rail_urban ship private truck vip custom2 authority delivery rail_electric taxi tram army hov coach motorcycle passenger bus rail emergency" index="1" length="11.539017429977408" shape="38.05325,-4.60595 33.077650000000006,-2.1733 27.686799999999998,0.46214999999999995" speed="36.11111111111111" width="3.6307914977315905"/>
	</edge>
	<edge from="22" function="normal" id="3528" length="6.57557739613032" numLanes="3" priority="1" speed="36.11111111111111" spreadType="center" to="23">
		<lane allow="moped bicycle pedestrian custom1 trailer evehicle rail_urban ship private truck vip custom2 authority delivery rail_electric taxi tram army hov coach motorcycle passenger bus rail emergency" index="0" length="6.57557739613032" shape="29.26375,3.74085 24.8409,9.762699999999999" speed="36.11111111111111" width="3.245737241367515"/>
		<lane allow="moped bicycle pedestrian custom1 trailer evehicle rail_urban ship private truck vip custom2 authority delivery rail_electric taxi tram army hov coach motorcycle passenger bus rail emergency" index="1" length="6.57557739613032" shape="29.26375,3.74085 23.351750000000003,6.6808499999999995" speed="36.11111111111111" width="3.6024336135451542"/>
		<lane allow="moped bicycle pedestrian custom1 trailer evehicle rail_urban ship private truck vip custom2 authority delivery rail_electric taxi tram army hov coach motorcycle passenger bus rail emergency" index="2" length="6.57557739613032" shape="27.686799999999998,0.46214999999999995 21.79875,3.38945" speed="36.11111111111111" width="3.6713079753679065"/>
	</edge>
	<edge from="23" function="normal" id="3534" length="6.6083636571393365" numLanes="3" priority="1" speed="36.11111111111111" spreadType="center" to="24">
		<lane allow="moped bicycle pedestrian custom1 trailer evehicle rail_urban ship private truck vip custom2 authority delivery rail_electric taxi tram army hov coach motorcycle passenger bus rail emergency" index="0" length="6.6083636571393365" shape="24.8409,9.762699999999999 18.86135,12.65215" speed="36.11111111111111" width="3.190167196245363"/>
		<lane allow="moped bicycle pedestrian custom1 trailer evehicle rail_urban ship private truck vip custom2 authority delivery rail_electric taxi tram army hov coach motorcycle passenger bus rail emergency" index="1" length="6.6083636571393365" shape="23.351750000000003,6.6808499999999995 17.4116,9.6256" speed="36.11111111111111" width="3.5215687697388525"/>
		<lane allow="moped bicycle pedestrian custom1 trailer evehicle rail_urban ship private truck vip custom2 authority delivery rail_electric taxi tram army hov coach motorcycle passenger bus rail emergency" index="2" length="6.6083636571393365" shape="21.79875,3.38945 15.8887,6.3461" speed="36.11111111111111" width="3.6773714878973"/>
	</edge>