<!-- generated on 2020-12-18 15:59:54.881421 by ipykernel_launcher.py v1_2_0+5214-53edc58fcd
-->
<nodes>
	<node id="1" type="from" x="21.15084" y="70.4586"/>
	<node id="2" type="to" x="17.68385" y="63.47316000000001"/>
	<node id="3" type="to" x="12.509691666666667" y="56.557583333333326"/>
	<node id="4" type="to" x="1.513475" y="34.46160833333333"/>
	<node id="5" type="to" x="20.716324999999998" y="-5.4315"/>
	<node id="6" type="to" x="33.55331666666667" y="-13.764583333333334"/>
	<node id="7" type="to" x="-5.8186" y="22.939666666666664"/>
	<node id="8" type="to" x="-13.1449" y="8.045483333333333"/>
	<node id="9" type="to" x="-18.526799999999998" y="-2.8937666666666666"/>
	<node id="10" type="to" x="-35.50933333333334" y="-41.42236666666667"/>
	<node id="11" type="to" x="-18.7701" y="32.79025"/>
	<node id="12" type="to" x="-39.48298333333333" y="39.29976666666666"/>
	<node id="13" type="from" x="-44.545633333333335" y="29.291383333333332"/>
	<node id="14" type="to" x="-24.2217" y="19.186333333333334"/>
	<node id="15" type="to" x="11.03155" y="29.6602"/>
	<node id="16" type="to" x="24.732199999999995" y="50.44961666666668"/>
	<node id="17" type="to" x="28.54488333333333" y="58.03893333333334"/>
	<node id="18" type="to" x="31.947833333333335" y="64.91581666666666"/>
	<node id="19" type="to" x="-15.87785" y="13.15935"/>
	<node id="20" type="to" x="6.229025" y="1.7752249999999998"/>
	<node id="21" type="from" x="38.855549999999994" y="-2.973025"/>
	<node id="22" type="to" x="28.475275" y="2.1015"/>
	<node id="23" type="to" x="23.330466666666666" y="6.611"/>
	<node id="24" type="to" x="17.387216666666667" y="9.541283333333334"/>
	<node id="25" type="to" x="10.657675000000001" y="10.97145"/>
	<node id="26" type="to" x="-11.4297" y="21.97735"/>
	<node id="27" type="from" x="-23.129759999999997" y="-47.52214"/>
	<node id="28" type="to" x="-4.5164" y="-10.260659999999998"/>
	<node id="29" type="to" x="0.6330833333333334" y="0.8132666666666667"/>
	<node id="30" type="to" x="7.993099999999999" y="16.188766666666666"/>
</nodes>
