<?xml version="1.0" encoding="UTF-8"?>

<!-- generated on Fri Dec 18 15:59:55 2020 by Eclipse SUMO netconvert Version 1.8.0
<configuration xmlns:xsi="http://www.w3.org/2001/XMLSchema-instance" xsi:noNamespaceSchemaLocation="http://sumo.dlr.de/xsd/netconvertConfiguration.xsd">

    <input>
        <node-files value="./converted_scenarios/NGSIM/Lankershim/USA_Lanker-1_7_I-1-1/nodes.net.xml"/>
        <edge-files value="./converted_scenarios/NGSIM/Lankershim/USA_Lanker-1_7_I-1-1/edges.net.xml"/>
        <connection-files value="./converted_scenarios/NGSIM/Lankershim/USA_Lanker-1_7_I-1-1/_connections.net.xml"/>
        <tllogic-files value="./converted_scenarios/NGSIM/Lankershim/USA_Lanker-1_7_I-1-1/_tll.net.xml"/>
    </input>

    <output>
        <output-file value="./converted_scenarios/NGSIM/Lankershim/USA_Lanker-1_7_I-1-1/USA_Lanker-1_7_I-1-1.net.xml"/>
    </output>

    <processing>
        <plain.extend-edge-shape value="true"/>
        <geometry.remove.keep-edges.explicit value="true"/>
        <geometry.avoid-overlap value="true"/>
        <offset.disable-normalization value="true"/>
    </processing>

    <junctions>
        <no-turnarounds value="true"/>
        <junctions.internal-link-detail value="20"/>
    </junctions>

    <report>
        <aggregate-warnings value="5"/>
    </report>

    <random_number>
        <seed value="1234"/>
    </random_number>

</configuration>
-->

<net version="1.6" junctionCornerDetail="5" junctionLinkDetail="20" limitTurnSpeed="5.50" xmlns:xsi="http://www.w3.org/2001/XMLSchema-instance" xsi:noNamespaceSchemaLocation="http://sumo.dlr.de/xsd/net_file.xsd">

    <location netOffset="0.00,0.00" convBoundary="-44.55,-47.52,38.86,70.46" origBoundary="-45.94,-50.25,39.66,73.21" projParameter="!"/>

    <edge id=":11_0" function="internal">
        <lane id=":11_0_0" index="0" disallow="bus truck rail_fast" speed="36.11" length="8.30" width="4.58" shape="-25.88,35.10 -18.03,32.43"/>
    </edge>
    <edge id=":11_1" function="internal">
        <lane id=":11_1_0" index="0" disallow="rail_fast" speed="36.11" length="1.01" width="3.11" shape="-18.94,27.58 -19.86,28.00"/>
        <lane id=":11_1_1" index="1" disallow="rail_fast" speed="36.11" length="1.01" width="3.66" shape="-20.26,24.43 -21.17,24.86"/>
    </edge>
    <edge id=":14_0" function="internal">
        <lane id=":14_0_0" index="0" disallow="bus truck rail_fast" speed="7.94" length="13.70" width="3.23" shape="-27.29,17.25 -26.07,16.63 -24.91,16.05 -23.83,15.49 -22.82,14.95 -21.88,14.44 -21.01,13.95 -20.20,13.49 -19.47,13.06 -18.81,12.65 -18.21,12.27 -17.69,11.91 -17.23,11.57 -16.85,11.27 -16.53,10.98 -16.29,10.73 -16.11,10.49 -16.00,10.29 -15.96,10.11 -16.00,9.95"/>
    </edge>
    <edge id=":14_1" function="internal">
        <lane id=":14_1_0" index="0" disallow="rail_fast" speed="36.11" length="13.45" width="3.23" shape="-27.29,17.25 -15.36,11.08"/>
        <lane id=":14_1_1" index="1" disallow="bus rail_fast" speed="36.11" length="13.45" width="3.03" shape="-25.90,20.05 -13.89,13.95"/>
    </edge>
    <edge id=":14_3" function="internal">
        <lane id=":14_3_0" index="0" disallow="bus truck rail_fast" speed="36.11" length="2.11" width="2.92" shape="-24.55,22.78 -26.44,23.71"/>
    </edge>
    <edge id=":15_0" function="internal">
        <lane id=":15_0_0" index="0" disallow="bus truck rail_fast" speed="9.12" length="13.80" width="3.05" shape="16.18,14.81 15.82,15.24 15.49,15.69 15.22,16.17 14.99,16.69 14.80,17.23 14.66,17.80 14.57,18.39 14.52,19.02 14.52,19.67 14.56,20.35 14.65,21.06 14.78,21.80 14.96,22.57 15.18,23.36 15.45,24.18 15.77,25.04 16.13,25.92 16.54,26.82 16.99,27.76"/>
    </edge>
    <edge id=":15_1" function="internal">
        <lane id=":15_1_0" index="0" disallow="rail_fast" speed="36.11" length="13.06" width="3.05" shape="11.35,16.03 16.99,27.76"/>
        <lane id=":15_1_1" index="1" disallow="rail_fast" speed="36.11" length="13.06" width="2.91" shape="8.53,17.39 14.17,29.17"/>
        <lane id=":15_1_2" index="2" disallow="rail_fast" speed="36.11" length="13.06" width="2.89" shape="5.80,18.70 11.47,30.52"/>
    </edge>
    <edge id=":15_4" function="internal">
        <lane id=":15_4_0" index="0" disallow="bus truck rail_fast" speed="36.11" length="13.55" width="2.89" shape="4.95,18.64 11.47,30.52"/>
    </edge>
    <edge id=":16_0" function="internal">
        <lane id=":16_0_0" index="0" disallow="rail_fast" speed="36.11" length="0.24" width="3.05" shape="27.32,49.02 27.42,49.22"/>
        <lane id=":16_0_1" index="1" disallow="rail_fast" speed="36.11" length="0.24" width="2.91" shape="24.65,50.35 24.76,50.57"/>
        <lane id=":16_0_2" index="2" disallow="rail_fast" speed="36.11" length="0.24" width="2.89" shape="22.06,51.65 22.17,51.87"/>
    </edge>
    <edge id=":17_0" function="internal">
        <lane id=":17_0_0" index="0" disallow="rail_fast" speed="36.11" length="3.05" width="3.05" shape="30.54,55.30 31.91,58.03"/>
        <lane id=":17_0_1" index="1" disallow="rail_fast" speed="36.11" length="3.05" width="3.00" shape="27.82,56.66 29.18,59.38"/>
        <lane id=":17_0_2" index="2" disallow="rail_fast" speed="36.11" length="3.05" width="2.94" shape="25.18,57.98 26.52,60.71"/>
    </edge>
    <edge id=":19_0" function="internal">
        <lane id=":19_0_0" index="0" disallow="rail_fast" speed="36.11" length="0.12" width="3.31" shape="-15.18,10.99 -15.28,11.04"/>
        <lane id=":19_0_1" index="1" disallow="rail_fast" speed="36.11" length="0.12" width="3.11" shape="-13.71,13.85 -13.82,13.91"/>
    </edge>
    <edge id=":2_0" function="internal">
        <lane id=":2_0_0" index="0" disallow="rail_fast" speed="21.97" length="7.43" width="2.94" shape="13.43,68.55 13.18,68.05 12.94,67.61 12.72,67.21 12.51,66.85 12.31,66.53 12.12,66.24 11.92,65.98 11.73,65.74 11.53,65.51 11.33,65.29 11.12,65.07 10.89,64.85 10.65,64.63 10.38,64.39 10.10,64.13 9.78,63.85 9.44,63.55 9.07,63.20 8.66,62.82"/>
        <lane id=":2_0_1" index="1" disallow="rail_fast" speed="36.11" length="7.43" width="2.94" shape="13.43,68.55 10.13,61.99"/>
        <lane id=":2_0_2" index="2" disallow="rail_fast" speed="36.11" length="7.43" width="3.05" shape="16.10,67.20 12.77,60.49"/>
        <lane id=":2_0_3" index="3" disallow="rail_fast" speed="36.11" length="7.43" width="3.03" shape="18.83,65.82 15.43,58.98"/>
        <lane id=":2_0_4" index="4" disallow="rail_fast" speed="36.11" length="7.43" width="3.05" shape="21.56,64.45 18.09,57.48"/>
        <lane id=":2_0_5" index="5" disallow="rail_fast" speed="36.11" length="7.43" width="3.12" shape="24.31,63.06 21.32,56.99"/>
    </edge>
    <edge id=":20_0" function="internal">
        <lane id=":20_0_0" index="0" disallow="rail_fast" speed="36.11" length="3.06" width="3.50" shape="4.09,0.97 6.83,-0.43"/>
        <lane id=":20_0_1" index="1" disallow="rail_fast" speed="36.11" length="3.06" width="3.31" shape="5.60,4.01 8.33,2.64"/>
    </edge>
    <edge id=":22_0" function="internal">
        <lane id=":22_0_0" index="0" disallow="rail_fast" speed="14.45" length="8.28" width="3.25" shape="32.91,1.96 32.37,2.22 31.88,2.47 31.44,2.69 31.04,2.90 30.68,3.11 30.35,3.30 30.05,3.49 29.77,3.69 29.51,3.89 29.26,4.10 29.02,4.33 28.78,4.57 28.54,4.84 28.29,5.13 28.03,5.45 27.75,5.81 27.45,6.21 27.13,6.65 26.77,7.14"/>
        <lane id=":22_0_1" index="1" disallow="rail_fast" speed="36.11" length="8.28" width="3.60" shape="32.91,1.96 25.68,5.52"/>
        <lane id=":22_0_2" index="2" disallow="rail_fast" speed="36.11" length="8.28" width="3.67" shape="31.32,-1.32 23.62,2.48"/>
    </edge>
    <edge id=":23_0" function="internal">
        <lane id=":23_0_0" index="0" disallow="rail_fast" speed="9.74" length="3.41" width="3.19" shape="25.43,8.96 25.27,9.17 25.12,9.36 24.97,9.53 24.84,9.67 24.70,9.80 24.58,9.91 24.45,10.01 24.32,10.09 24.19,10.17 24.06,10.23 23.92,10.30 23.78,10.36 23.62,10.42 23.45,10.49 23.28,10.56 23.08,10.64 22.87,10.73 22.65,10.83 22.40,10.94"/>
        <lane id=":23_0_1" index="1" disallow="rail_fast" speed="36.11" length="3.41" width="3.52" shape="23.96,6.38 20.92,7.88"/>
        <lane id=":23_0_2" index="2" disallow="rail_fast" speed="36.11" length="3.41" width="3.68" shape="22.15,3.22 19.35,4.62"/>
    </edge>
    <edge id=":24_0" function="internal">
        <lane id=":24_0_0" index="0" disallow="bus truck rail_fast" speed="14.27" length="3.68" width="2.93" shape="19.78,12.21 19.53,12.33 19.31,12.43 19.10,12.53 18.92,12.61 18.75,12.69 18.59,12.77 18.44,12.84 18.31,12.91 18.18,12.98 18.05,13.05 17.93,13.13 17.80,13.22 17.68,13.32 17.55,13.43 17.41,13.55 17.26,13.69 17.10,13.85 16.93,14.02 16.74,14.22"/>
    </edge>
    <edge id=":24_1" function="internal">
        <lane id=":24_1_0" index="0" disallow="rail_fast" speed="36.11" length="11.27" width="3.46" shape="18.32,9.17 8.23,14.17"/>
        <lane id=":24_1_1" index="1" disallow="rail_fast" speed="36.11" length="11.27" width="3.70" shape="16.76,5.91 6.68,10.97"/>
    </edge>
    <edge id=":24_3" function="internal">
        <lane id=":24_3_0" index="0" disallow="bus truck rail_fast" speed="17.55" length="16.88" width="3.01" shape="16.76,5.91 15.62,6.47 14.53,6.97 13.50,7.41 12.51,7.80 11.56,8.15 10.65,8.44 9.78,8.70 8.93,8.91 8.11,9.08 7.32,9.22 6.54,9.32 5.78,9.39 5.03,9.43 4.28,9.45 3.54,9.44 2.79,9.41 2.04,9.36 1.28,9.30 0.50,9.22"/>
    </edge>
    <edge id=":25_0" function="internal">
        <lane id=":25_0_0" index="0" disallow="rail_fast" speed="36.11" length="2.24" width="3.21" shape="8.05,14.26 10.07,13.26"/>
        <lane id=":25_0_1" index="1" disallow="rail_fast" speed="36.11" length="2.24" width="3.68" shape="6.50,11.05 8.50,10.05"/>
    </edge>
    <edge id=":26_0" function="internal">
        <lane id=":26_0_0" index="0" disallow="rail_fast" speed="36.11" length="14.96" width="3.17" shape="0.40,18.05 -13.02,24.67"/>
        <lane id=":26_0_1" index="1" disallow="rail_fast" speed="36.11" length="14.96" width="3.68" shape="-1.18,14.91 -14.55,21.60"/>
    </edge>
    <edge id=":26_2" function="internal">
        <lane id=":26_2_0" index="0" disallow="bus truck rail_fast" speed="11.28" length="15.17" width="3.68" shape="-5.71,10.02 -5.87,10.84 -6.07,11.63 -6.30,12.41 -6.56,13.15 -6.86,13.88 -7.19,14.58 -7.55,15.26 -7.95,15.92 -8.38,16.55 -8.84,17.16 -9.34,17.75 -9.88,18.31 -10.44,18.85 -11.04,19.37 -11.68,19.86 -12.34,20.33 -13.05,20.78 -13.78,21.20 -14.55,21.60"/>
    </edge>
    <edge id=":28_0" function="internal">
        <lane id=":28_0_0" index="0" disallow="bus truck rail_fast" speed="10.22" length="10.24" width="3.11" shape="0.28,-15.05 0.52,-14.65 0.78,-14.26 1.06,-13.88 1.36,-13.52 1.68,-13.17 2.03,-12.83 2.40,-12.50 2.80,-12.19 3.21,-11.89 3.65,-11.61 4.11,-11.33 4.59,-11.07 5.10,-10.83 5.63,-10.59 6.18,-10.37 6.75,-10.16 7.35,-9.97 7.97,-9.78 8.61,-9.61"/>
    </edge>
    <edge id=":28_1" function="internal">
        <lane id=":28_1_0" index="0" disallow="bus truck rail_fast" speed="11.58" length="11.05" width="3.13" shape="-2.77,-13.45 -2.41,-12.74 -2.07,-12.10 -1.74,-11.53 -1.42,-11.02 -1.10,-10.57 -0.79,-10.17 -0.46,-9.81 -0.13,-9.49 0.21,-9.20 0.58,-8.94 0.97,-8.70 1.38,-8.48 1.83,-8.26 2.32,-8.04 2.85,-7.82 3.43,-7.59 4.05,-7.34 4.74,-7.07 5.48,-6.78"/>
    </edge>
    <edge id=":28_2" function="internal">
        <lane id=":28_2_0" index="0" disallow="rail_fast" speed="36.11" length="10.45" width="3.12" shape="-2.77,-13.45 1.79,-3.89"/>
        <lane id=":28_2_1" index="1" disallow="rail_fast" speed="36.11" length="10.45" width="3.06" shape="-5.50,-12.01 -1.00,-2.58"/>
        <lane id=":28_2_2" index="2" disallow="rail_fast" speed="36.11" length="10.45" width="2.98" shape="-8.20,-10.59 -3.74,-1.29"/>
    </edge>
    <edge id=":28_5" function="internal">
        <lane id=":28_5_0" index="0" disallow="bus truck rail_fast" speed="36.11" length="10.20" width="2.87" shape="-10.89,-9.18 -10.55,-8.49 -10.24,-7.88 -9.96,-7.32 -9.71,-6.81 -9.48,-6.34 -9.27,-5.91 -9.07,-5.51 -8.89,-5.12 -8.71,-4.75 -8.54,-4.38 -8.38,-4.00 -8.22,-3.61 -8.05,-3.20 -7.88,-2.76 -7.70,-2.28 -7.51,-1.76 -7.30,-1.18 -7.07,-0.54 -6.83,0.17"/>
    </edge>
    <edge id=":29_0" function="internal">
        <lane id=":29_0_0" index="0" disallow="rail_fast" speed="36.11" length="3.22" width="3.12" shape="2.67,-2.03 4.06,0.87"/>
        <lane id=":29_0_1" index="1" disallow="rail_fast" speed="36.11" length="3.22" width="3.06" shape="-0.08,-0.63 1.31,2.27"/>
        <lane id=":29_0_2" index="2" disallow="rail_fast" speed="36.11" length="3.22" width="2.95" shape="-2.77,0.74 -1.39,3.64"/>
    </edge>
    <edge id=":3_0" function="internal">
        <lane id=":3_0_0" index="0" disallow="rail_fast" speed="15.71" length="3.50" width="3.22" shape="8.27,62.46 8.07,62.28 7.88,62.12 7.70,61.98 7.53,61.85 7.37,61.74 7.22,61.65 7.07,61.56 6.94,61.47 6.80,61.39 6.68,61.31 6.56,61.22 6.44,61.12 6.32,61.01 6.20,60.89 6.08,60.75 5.96,60.59 5.84,60.41 5.72,60.19 5.59,59.95"/>
        <lane id=":3_0_1" index="1" disallow="rail_fast" speed="36.11" length="3.50" width="2.87" shape="9.93,61.61 8.41,58.59"/>
        <lane id=":3_0_2" index="2" disallow="rail_fast" speed="36.11" length="3.50" width="3.00" shape="12.63,60.22 11.16,57.26"/>
        <lane id=":3_0_3" index="3" disallow="rail_fast" speed="36.11" length="3.50" width="3.02" shape="15.35,58.82 13.89,55.92"/>
        <lane id=":3_0_4" index="4" disallow="rail_fast" speed="36.11" length="3.50" width="3.02" shape="18.04,57.39 16.61,54.53"/>
        <lane id=":3_0_5" index="5" disallow="rail_fast" speed="36.11" length="3.50" width="3.03" shape="21.23,56.81 19.40,53.12"/>
    </edge>
    <edge id=":30_0" function="internal">
        <lane id=":30_0_0" index="0" disallow="rail_fast" speed="36.11" length="2.64" width="3.14" shape="10.11,13.46 11.26,15.85"/>
        <lane id=":30_0_1" index="1" disallow="rail_fast" speed="36.11" length="2.64" width="3.10" shape="7.30,14.82 8.44,17.21"/>
        <lane id=":30_0_2" index="2" disallow="rail_fast" speed="36.11" length="2.64" width="2.93" shape="4.58,16.14 5.71,18.52"/>
    </edge>
    <edge id=":4_0" function="internal">
        <lane id=":4_0_0" index="0" disallow="bus truck rail_fast" speed="36.11" length="5.96" width="3.84" shape="-3.68,41.54 -3.88,41.14 -4.06,40.78 -4.22,40.46 -4.37,40.16 -4.50,39.89 -4.63,39.64 -4.74,39.41 -4.86,39.19 -4.97,38.98 -5.09,38.77 -5.21,38.57 -5.34,38.36 -5.48,38.15 -5.64,37.92 -5.82,37.68 -6.02,37.41 -6.24,37.13 -6.49,36.81 -6.76,36.47"/>
    </edge>
    <edge id=":4_1" function="internal">
        <lane id=":4_1_0" index="0" disallow="rail_fast" speed="36.11" length="6.33" width="2.87" shape="-0.72,40.03 -3.57,34.34"/>
        <lane id=":4_1_1" index="1" disallow="rail_fast" speed="36.11" length="6.33" width="3.02" shape="1.94,38.67 -0.91,33.02"/>
        <lane id=":4_1_2" index="2" disallow="rail_fast" speed="36.11" length="6.33" width="3.12" shape="4.66,37.28 1.87,31.64"/>
    </edge>
    <edge id=":4_4" function="internal">
        <lane id=":4_4_0" index="0" disallow="bus truck rail_fast" speed="36.11" length="6.26" width="2.93" shape="7.40,35.88 4.61,30.29"/>
    </edge>
    <edge id=":4_5" function="internal">
        <lane id=":4_5_0" index="0" disallow="bus truck rail_fast" speed="36.11" length="6.22" width="3.03" shape="10.12,34.50 7.34,28.93"/>
    </edge>
    <edge id=":5_0" function="internal">
        <lane id=":5_0_0" index="0" disallow="bus truck rail_fast" speed="10.83" length="9.96" width="3.88" shape="9.46,-9.40 10.10,-9.24 10.68,-9.10 11.22,-8.98 11.71,-8.88 12.16,-8.79 12.59,-8.73 12.99,-8.69 13.37,-8.67 13.74,-8.68 14.10,-8.71 14.47,-8.76 14.84,-8.85 15.22,-8.95 15.63,-9.09 16.05,-9.26 16.51,-9.45 17.01,-9.67 17.55,-9.93 18.14,-10.22"/>
        <lane id=":5_0_1" index="1" disallow="bus truck rail_fast" speed="12.01" length="9.96" width="3.51" shape="9.34,-5.84 10.11,-5.66 10.81,-5.50 11.45,-5.36 12.05,-5.24 12.59,-5.15 13.10,-5.08 13.58,-5.04 14.04,-5.02 14.49,-5.03 14.92,-5.07 15.36,-5.14 15.81,-5.24 16.27,-5.37 16.75,-5.54 17.27,-5.74 17.82,-5.97 18.42,-6.24 19.07,-6.55 19.78,-6.90"/>
    </edge>
    <edge id=":5_2" function="internal">
        <lane id=":5_2_0" index="0" disallow="bus truck rail_fast" speed="36.11" length="10.89" width="3.51" shape="10.12,-1.79 19.78,-6.90"/>
        <lane id=":5_2_1" index="1" disallow="bus truck rail_fast" speed="36.11" length="10.89" width="3.38" shape="11.86,1.53 12.52,1.06 13.12,0.64 13.67,0.26 14.17,-0.07 14.63,-0.37 15.05,-0.64 15.46,-0.88 15.84,-1.11 16.22,-1.32 16.60,-1.52 16.99,-1.72 17.39,-1.92 17.82,-2.12 18.28,-2.34 18.77,-2.58 19.32,-2.83 19.91,-3.12 20.57,-3.44 21.31,-3.80"/>
    </edge>
    <edge id=":5_4" function="internal">
        <lane id=":5_4_0" index="0" disallow="rail_fast" speed="36.11" length="13.99" width="3.51" shape="7.25,-0.64 19.78,-6.90"/>
        <lane id=":5_4_1" index="1" disallow="rail_fast" speed="36.11" length="13.99" width="3.38" shape="8.78,2.41 21.31,-3.80"/>
    </edge>
    <edge id=":7_0" function="internal">
        <lane id=":7_0_0" index="0" disallow="rail_fast" speed="36.11" length="3.02" width="3.06" shape="-7.88,25.65 -9.22,22.94"/>
        <lane id=":7_0_1" index="1" disallow="rail_fast" speed="36.11" length="3.02" width="2.99" shape="-5.16,24.31 -6.49,21.59"/>
        <lane id=":7_0_2" index="2" disallow="rail_fast" speed="36.11" length="3.02" width="3.06" shape="-2.40,22.96 -3.74,20.25"/>
    </edge>
    <edge id=":8_0" function="internal">
        <lane id=":8_0_0" index="0" disallow="rail_fast" speed="36.11" length="0.10" width="3.29" shape="-15.20,10.88 -15.21,10.86"/>
        <lane id=":8_0_1" index="1" disallow="rail_fast" speed="36.11" length="0.10" width="2.97" shape="-12.41,9.45 -12.43,9.42"/>
        <lane id=":8_0_2" index="2" disallow="rail_fast" speed="36.11" length="0.10" width="3.01" shape="-9.72,8.07 -9.74,8.04"/>
    </edge>
    <edge id=":9_0" function="internal">
        <lane id=":9_0_0" index="0" disallow="bus rail_fast" speed="36.11" length="15.32" width="2.85" shape="-15.30,10.68 -22.09,-3.05"/>
        <lane id=":9_0_1" index="1" disallow="rail_fast" speed="36.11" length="15.32" width="2.97" shape="-12.52,9.25 -19.25,-4.51"/>
        <lane id=":9_0_2" index="2" disallow="rail_fast" speed="36.11" length="15.32" width="2.96" shape="-9.83,7.86 -16.58,-5.88"/>
    </edge>
    <edge id=":9_3" function="internal">
        <lane id=":9_3_0" index="0" disallow="bus truck rail_fast" speed="14.99" length="18.43" width="2.96" shape="-5.29,8.16 -6.00,7.84 -6.69,7.48 -7.35,7.09 -7.98,6.65 -8.60,6.17 -9.19,5.65 -9.78,5.08 -10.35,4.47 -10.91,3.80 -11.46,3.09 -12.01,2.33 -12.56,1.51 -13.11,0.63 -13.66,-0.30 -14.22,-1.29 -14.79,-2.34 -15.37,-3.46 -15.96,-4.64 -16.58,-5.88"/>
    </edge>
    <edge id=":9_4" function="internal">
        <lane id=":9_4_0" index="0" disallow="bus truck rail_fast" speed="36.11" length="14.16" width="2.85" shape="-16.08,9.77 -22.09,-3.05"/>
    </edge>

    <edge id="3431" from="1" to="2" priority="1" spreadType="center" length="7.75">
        <lane id="3431_0" index="0" disallow="rail_fast" speed="36.11" length="7.75" width="2.84" customShape="1" shape="15.74,73.11 13.43,68.55"/>
        <lane id="3431_1" index="1" disallow="rail_fast" speed="36.11" length="7.75" width="3.06" customShape="1" shape="18.42,71.86 16.10,67.20"/>
        <lane id="3431_2" index="2" disallow="rail_fast" speed="36.11" length="7.75" width="3.03" customShape="1" shape="21.13,70.47 18.83,65.82"/>
        <lane id="3431_3" index="3" disallow="rail_fast" speed="36.11" length="7.75" width="3.05" customShape="1" shape="23.87,69.12 21.56,64.45"/>
        <lane id="3431_4" index="4" disallow="rail_fast" speed="36.11" length="7.75" width="3.05" customShape="1" shape="26.62,67.77 24.31,63.06"/>
    </edge>
    <edge id="3438" from="2" to="3" priority="1" spreadType="center" length="8.44">
        <lane id="3438_0" index="0" disallow="rail_fast" speed="36.11" length="8.44" width="2.94" customShape="1" shape="8.66,62.82 8.27,62.46"/>
        <lane id="3438_1" index="1" disallow="rail_fast" speed="36.11" length="8.44" width="2.94" customShape="1" shape="10.13,61.99 9.93,61.61"/>
        <lane id="3438_2" index="2" disallow="rail_fast" speed="36.11" length="8.44" width="3.05" customShape="1" shape="12.77,60.49 12.63,60.22"/>
        <lane id="3438_3" index="3" disallow="rail_fast" speed="36.11" length="8.44" width="3.03" customShape="1" shape="15.43,58.98 15.35,58.82"/>
        <lane id="3438_4" index="4" disallow="rail_fast" speed="36.11" length="8.44" width="3.05" customShape="1" shape="18.09,57.48 18.04,57.39"/>
        <lane id="3438_5" index="5" disallow="rail_fast" speed="36.11" length="8.44" width="3.12" customShape="1" shape="21.32,56.99 21.23,56.81"/>
    </edge>
    <edge id="3450" from="3" to="4" priority="1" spreadType="center" length="24.49">
        <lane id="3450_0" index="0" disallow="rail_fast" speed="36.11" length="24.49" width="3.22" customShape="1" shape="5.59,59.95 2.41,53.69 -1.38,46.00 -3.68,41.54"/>
        <lane id="3450_1" index="1" disallow="rail_fast" speed="36.11" length="24.49" width="2.87" customShape="1" shape="8.41,58.59 5.41,52.54 1.58,44.59 -0.72,40.03"/>
        <lane id="3450_2" index="2" disallow="rail_fast" speed="36.11" length="24.49" width="3.00" customShape="1" shape="11.16,57.26 8.14,51.21 4.29,43.26 1.94,38.67"/>
        <lane id="3450_3" index="3" disallow="rail_fast" speed="36.11" length="24.49" width="3.02" customShape="1" shape="13.89,55.92 10.81,49.76 6.92,41.81 4.66,37.28"/>
        <lane id="3450_4" index="4" disallow="rail_fast" speed="36.11" length="24.49" width="3.02" customShape="1" shape="16.61,54.53 13.49,48.30 9.61,40.35 7.40,35.88"/>
        <lane id="3450_5" index="5" disallow="rail_fast" speed="36.11" length="24.49" width="3.03" customShape="1" shape="19.40,53.12 16.19,46.80 12.30,38.85 10.12,34.50"/>
    </edge>
    <edge id="3456" from="15" to="16" priority="1" spreadType="center" length="24.71">
        <lane id="3456_0" index="0" disallow="rail_fast" speed="36.11" length="24.71" width="3.05" customShape="1" shape="16.99,27.76 20.15,34.09 24.01,42.01 27.32,49.02"/>
        <lane id="3456_1" index="1" disallow="rail_fast" speed="36.11" length="24.71" width="2.91" customShape="1" shape="14.17,29.17 17.59,35.86 21.27,43.43 24.65,50.35"/>
        <lane id="3456_2" index="2" disallow="rail_fast" speed="36.11" length="24.71" width="2.89" customShape="1" shape="11.47,30.52 14.96,37.42 18.75,45.12 22.06,51.65"/>
    </edge>
    <edge id="3462" from="16" to="17" priority="1" spreadType="center" length="8.47">
        <lane id="3462_0" index="0" disallow="rail_fast" speed="36.11" length="8.47" width="3.05" customShape="1" shape="27.42,49.22 30.54,55.30"/>
        <lane id="3462_1" index="1" disallow="rail_fast" speed="36.11" length="8.47" width="2.91" customShape="1" shape="24.76,50.57 27.82,56.66"/>
        <lane id="3462_2" index="2" disallow="rail_fast" speed="36.11" length="8.47" width="2.89" customShape="1" shape="22.17,51.87 25.18,57.98"/>
    </edge>
    <edge id="3470" from="17" to="18" priority="1" spreadType="center" length="7.64">
        <lane id="3470_0" index="0" disallow="rail_fast" speed="36.11" length="7.64" width="3.05" customShape="1" shape="31.91,58.03 34.66,63.57"/>
        <lane id="3470_1" index="1" disallow="rail_fast" speed="36.11" length="7.64" width="3.00" customShape="1" shape="29.18,59.38 31.94,64.92"/>
        <lane id="3470_2" index="2" disallow="rail_fast" speed="36.11" length="7.64" width="2.94" customShape="1" shape="26.52,60.71 29.26,66.29"/>
    </edge>
    <edge id="3479" from="13" to="14" priority="1" spreadType="center" length="22.65">
        <lane id="3479_0" index="0" disallow="rail_fast" speed="36.11" length="22.65" width="3.23" customShape="1" shape="-45.94,26.53 -44.80,25.95 -35.22,21.20 -27.29,17.25"/>
        <lane id="3479_1" index="1" disallow="bus rail_fast" speed="36.11" length="22.65" width="3.02" customShape="1" shape="-44.53,29.32 -43.37,28.73 -33.79,23.98 -25.90,20.05"/>
        <lane id="3479_2" index="2" disallow="bus rail_fast" speed="36.11" length="22.65" width="3.06" customShape="1" shape="-43.16,32.03 -41.96,31.43 -32.38,26.67 -24.55,22.78"/>
    </edge>
    <edge id="3487" from="11" to="12" priority="1" spreadType="center" length="21.43">
        <lane id="3487_0" index="0" disallow="rail_fast" speed="36.11" length="21.43" width="4.58" acceleration="1" customShape="1" shape="-18.03,32.43 -27.98,37.23 -36.82,42.05 -37.71,42.54"/>
        <lane id="3487_1" index="1" disallow="rail_fast" speed="36.11" length="21.43" width="3.11" customShape="1" shape="-19.86,28.00 -29.88,33.38 -38.52,38.55 -39.56,39.17"/>
        <lane id="3487_2" index="2" disallow="rail_fast" speed="36.11" length="21.43" width="3.66" customShape="1" shape="-21.17,24.86 -31.40,30.35 -40.05,35.52 -41.18,36.20"/>
    </edge>
    <edge id="3495" from="5" to="6" priority="1" spreadType="center" length="15.18">
        <lane id="3495_0" index="0" disallow="rail_fast" speed="36.11" length="15.18" width="3.88" customShape="1" shape="18.14,-10.22 27.05,-14.60 31.96,-17.02"/>
        <lane id="3495_1" index="1" disallow="rail_fast" speed="36.11" length="15.18" width="3.51" customShape="1" shape="19.78,-6.90 28.67,-11.27 33.59,-13.69"/>
        <lane id="3495_2" index="2" disallow="rail_fast" speed="36.11" length="15.18" width="3.38" customShape="1" shape="21.31,-3.80 30.17,-8.15 35.12,-10.59"/>
    </edge>
    <edge id="3502" from="21" to="22" priority="1" spreadType="center" length="11.54">
        <lane id="3502_0" index="0" disallow="rail_fast" speed="36.11" length="11.54" width="3.61" customShape="1" shape="39.66,-1.34 34.61,1.13 32.91,1.96"/>
        <lane id="3502_1" index="1" disallow="rail_fast" speed="36.11" length="11.54" width="3.63" customShape="1" shape="38.06,-4.61 33.08,-2.17 31.32,-1.32"/>
    </edge>
    <edge id="3528" from="22" to="23" priority="1" spreadType="center" length="6.58">
        <lane id="3528_0" index="0" disallow="rail_fast" speed="36.11" length="6.58" width="3.25" customShape="1" shape="26.77,7.14 25.43,8.96"/>
        <lane id="3528_1" index="1" disallow="rail_fast" speed="36.11" length="6.58" width="3.60" customShape="1" shape="25.68,5.52 23.96,6.38"/>
        <lane id="3528_2" index="2" disallow="rail_fast" speed="36.11" length="6.58" width="3.67" customShape="1" shape="23.62,2.48 22.15,3.22"/>
    </edge>
    <edge id="3534" from="23" to="24" priority="1" spreadType="center" length="6.61">
        <lane id="3534_0" index="0" disallow="rail_fast" speed="36.11" length="6.61" width="3.19" customShape="1" shape="22.40,10.94 19.78,12.21"/>
        <lane id="3534_1" index="1" disallow="rail_fast" speed="36.11" length="6.61" width="3.52" customShape="1" shape="20.92,7.88 18.32,9.17"/>
        <lane id="3534_2" index="2" disallow="rail_fast" speed="36.11" length="6.61" width="3.68" customShape="1" shape="19.35,4.62 16.76,5.91"/>
    </edge>
    <edge id="3542" from="9" to="10" priority="1" spreadType="center" length="42.05">
        <lane id="3542_0" index="0" disallow="bus rail_fast" speed="36.11" length="42.05" width="2.85" customShape="1" shape="-22.09,-3.05 -25.47,-9.97 -29.52,-18.90 -33.29,-27.62 -36.92,-36.87 -38.31,-40.27"/>
        <lane id="3542_1" index="1" disallow="rail_fast" speed="36.11" length="42.05" width="2.97" customShape="1" shape="-19.25,-4.51 -22.70,-11.48 -26.79,-20.27 -30.53,-28.95 -34.18,-38.07 -35.53,-41.41"/>
        <lane id="3542_2" index="2" disallow="rail_fast" speed="36.11" length="42.05" width="2.96" customShape="1" shape="-16.58,-5.88 -20.04,-13.00 -24.09,-21.72 -27.86,-30.41 -31.35,-39.21 -32.69,-42.58"/>
    </edge>
    <edge id="3573" from="27" to="28" priority="1" spreadType="center" length="41.48">
        <lane id="3573_0" index="0" disallow="rail_fast" speed="36.11" length="41.48" width="3.35" customShape="1" shape="-17.59,-50.25 -15.94,-46.92 -11.68,-38.34 -7.24,-29.41 -2.94,-20.95 0.28,-15.05"/>
        <lane id="3573_1" index="1" disallow="rail_fast" speed="36.11" length="41.48" width="2.88" customShape="1" shape="-20.45,-48.84 -18.71,-45.35 -14.51,-36.98 -9.97,-27.91 -5.76,-19.48 -2.77,-13.45"/>
        <lane id="3573_2" index="2" disallow="rail_fast" speed="36.11" length="41.48" width="3.08" customShape="1" shape="-23.17,-47.50 -21.40,-43.95 -17.20,-35.58 -12.66,-26.51 -8.45,-18.08 -5.50,-12.01"/>
        <lane id="3573_3" index="3" disallow="rail_fast" speed="36.11" length="41.48" width="2.82" customShape="1" shape="-25.86,-46.18 -24.07,-42.59 -19.87,-34.22 -15.34,-25.15 -11.16,-16.67 -8.20,-10.59"/>
        <lane id="3573_4" index="4" disallow="rail_fast" speed="36.11" length="41.48" width="3.05" customShape="1" shape="-28.57,-44.85 -26.77,-41.17 -22.57,-32.79 -18.04,-23.73 -13.86,-15.25 -10.89,-9.18"/>
    </edge>
    <edge id="3600" from="14" to="9" priority="1" spreadType="center" length="24.20">
        <lane id="3600_0" index="0" disallow="bus truck rail_fast" speed="36.11" length="24.20" width="3.23" customShape="1" shape="-16.00,9.95 -16.08,9.77"/>
    </edge>
    <edge id="3602" from="24" to="15" priority="1" spreadType="center" length="16.41">
        <lane id="3602_0" index="0" disallow="bus truck rail_fast" speed="36.11" length="16.41" width="2.93" customShape="1" shape="16.74,14.22 16.18,14.81"/>
    </edge>
    <edge id="3604" from="4" to="11" priority="1" spreadType="center" length="15.84">
        <lane id="3604_0" index="0" disallow="bus truck rail_fast" speed="36.11" length="15.84" width="3.84" customShape="1" shape="-6.76,36.47 -7.77,35.23 -9.15,33.84 -11.04,32.60 -12.74,32.02 -14.53,31.82 -16.45,32.04 -25.88,35.10"/>
    </edge>
    <edge id="3610" from="4" to="7" priority="1" spreadType="center" length="13.55">
        <lane id="3610_0" index="0" disallow="rail_fast" speed="36.11" length="13.55" width="2.87" customShape="1" shape="-3.57,34.34 -7.88,25.65"/>
        <lane id="3610_1" index="1" disallow="rail_fast" speed="36.11" length="13.55" width="3.02" customShape="1" shape="-0.91,33.02 -5.16,24.31"/>