<routes>
	<vehicle depart="0.1" departLane="2" departPos="42.04503365774769" departSpeed="11.1008" id="1767" type="passenger">
		<route edges="3542"/>
	</vehicle>
	<vehicle depart="0.1" departLane="2" departPos="0" departSpeed="11.2685" id="1769" type="passenger">
		<route edges="3456 3462 3470"/>
	</vehicle>
	<vehicle depart="0.1" departLane="0" departPos="0" departSpeed="13.841" id="1775" type="passenger">
		<route edges="3456 3462 3470"/>
	</vehicle>
	<vehicle depart="0.1" departLane="1" departPos="16.96550175437233" departSpeed="13.2801" id="1776" type="passenger">
		<route edges="3456 3462 3470"/>
	</vehicle>
	<vehicle depart="0.1" departLane="0" departPos="12.380791604236506" departSpeed="10.9057" id="1777" type="passenger">
		<route edges="3652 3616 3602 3456 3462 3470"/>
	</vehicle>
	<vehicle depart="0.1" departLane="2" departPos="0" departSpeed="10.4181" id="1779" type="passenger">
		<route edges="3542"/>
	</vehicle>
	<vehicle depart="0.1" departLane="0" departPos="0" departSpeed="10.3419" id="1780" type="passenger">
		<route edges="3632 3652 3616 3456 3462 3470"/>
	</vehicle>
	<vehicle depart="0.1" departLane="1" departPos="13.39591280213857" departSpeed="14.542" id="1781" type="passenger">
		<route edges="3616 3456 3462 3470"/>
	</vehicle>
	<vehicle depart="0.1" departLane="1" departPos="31.065304064480593" departSpeed="6.7452" id="1783" type="passenger">
		<route edges="3573 3632 3652 3616 3456 3462 3470"/>
	</vehicle>
	<vehicle depart="0.1" departLane="2" departPos="41.65840591059532" departSpeed="10.7533" id="1788" type="passenger">
		<route edges="3573 3632 3652 3616 3456 3462 3470"/>
	</vehicle>
	<vehicle depart="0.1" departLane="2" departPos="24.031687005325352" departSpeed="7.748" id="1789" type="passenger">
		<route edges="3573 3632 3652 3616 3456 3462 3470"/>
	</vehicle>
	<vehicle depart="0.1" departLane="2" departPos="13.437931381447816" departSpeed="11.174" id="1790" type="passenger">
		<route edges="3616 3456 3462 3470"/>
	</vehicle>
	<vehicle depart="0.1" departLane="1" departPos="15.088668613658019" departSpeed="4.6726" id="1791" type="passenger">
		<route edges="3573 3680 3495"/>
	</vehicle>
	<vehicle depart="0.1" departLane="0" departPos="0" departSpeed="0.0" id="1794" type="passenger">
		<route edges="3620 3662 3640 3487"/>
	</vehicle>
	<vehicle depart="0.1" departLane="0" departPos="0" departSpeed="15.6545" id="1796" type="passenger">
		<route edges="3610 3646 3626 3542"/>
	</vehicle>
	<vehicle depart="0.1" departLane="3" departPos="17.667114189285094" departSpeed="15.6423" id="1797" type="passenger">
		<route edges="3450 3610 3646 3626 3542"/>
	</vehicle>
	<vehicle depart="0.1" departLane="2" departPos="0" departSpeed="4.8951" id="1801" type="passenger">
		<route edges="3573 3632 3652 3616 3456 3462 3470"/>
	</vehicle>
	<vehicle depart="0.1" departLane="1" departPos="0" departSpeed="2.2738" id="1807" type="passenger">
		<route edges="3573 3680 3495"/>
	</vehicle>
	<vehicle depart="0.1" departLane="2" departPos="0" departSpeed="3.5357" id="1809" type="passenger">
		<route edges="3573 3632 3652 3616 3456 3462 3470"/>
	</vehicle>
	<vehicle depart="0.1" departLane="1" departPos="0" departSpeed="0.0" id="1813" type="passenger">
		<route edges="3534 3620 3662 3640 3487"/>
	</vehicle>
	<vehicle depart="0.1" departLane="2" departPos="11.200744734135633" departSpeed="11.4483" id="1826" type="passenger">
		<route edges="3652 3616 3672 3616 3456 3462 3470"/>
	</vehicle>
	<vehicle depart="0.1" departLane="2" departPos="0" departSpeed="8.5222" id="1831" type="passenger">
		<route edges="3632 3652 3616 3456 3462 3470"/>
	</vehicle>
</routes>
