<routes>
	<vehicle depart="0.1" departLane="0" departPos="59.21867127547402" departSpeed="0.0" id="319" type="passenger">
		<route edges="20162 19898"/>
	</vehicle>
	<vehicle depart="0.1" departLane="0" departPos="9.448980735446117" departSpeed="1.6394717" id="320" type="passenger">
		<route edges=":111_2 20161"/>
	</vehicle>
	<vehicle depart="0.1" departLane="0" departPos="32.327524974935734" departSpeed="0.011795215" id="347" type="passenger">
		<route edges="19841 19864"/>
	</vehicle>
	<vehicle depart="0.1" departLane="0" departPos="53.14892016062319" departSpeed="1.9287067" id="349" type="passenger">
		<route edges="19865 20161"/>
	</vehicle>
	<vehicle depart="0.1" departLane="0" departPos="22.16235370179574" departSpeed="1.4222139" id="386" type="passenger">
		<route edges="19864 19799"/>
	</vehicle>
	<vehicle depart="0.1" departLane="0" departPos="10.94365567474164" departSpeed="3.2840502" id="390" type="passenger">
		<route edges="19864 19799"/>
	</vehicle>
	<vehicle depart="0.1" departLane="0" departPos="36.3017208541747" departSpeed="5.3933348" id="396" type="passenger">
		<route edges=":111_7 19864 19799"/>
	</vehicle>
	<vehicle depart="0.1" departLane="0" departPos="14.193955767286262" departSpeed="0.066138041" id="3102" type="passenger">
		<route edges="19897 20161"/>
	</vehicle>
	<vehicle depart="0.1" departLane="0" departPos="5.137227179538565" departSpeed="0.48620958" id="3105" type="motorcycle">
		<route edges="19897 20161"/>
	</vehicle>
	<vehicle depart="0.1" departLane="0" departPos="33.4322894781799" departSpeed="0.13400269" id="366" type="truck">
		<route edges="19864 19799"/>
	</vehicle>
</routes>
