<routes>
	<vehicle depart="0.1" departLane="0" departPos="17.711100880408296" departSpeed="0.0" id="310" type="passenger">
		<route edges="41862 41621"/>
	</vehicle>
	<vehicle depart="0.1" departLane="0" departPos="22.771218938860724" departSpeed="0.0" id="317" type="passenger">
		<route edges="41860 41863"/>
	</vehicle>
	<vehicle depart="0.1" departLane="0" departPos="57.060085448276915" departSpeed="2.346806" id="327" type="passenger">
		<route edges="41622 41863"/>
	</vehicle>
	<vehicle depart="0.1" departLane="0" departPos="9.072302853846036" departSpeed="0.027462491" id="330" type="passenger">
		<route edges=":33_8 41859"/>
	</vehicle>
	<vehicle depart="0.1" departLane="0" departPos="26.693326402835595" departSpeed="0.54127675" id="335" type="passenger">
		<route edges="41622 41863"/>
	</vehicle>
	<vehicle depart="0.1" departLane="0" departPos="16.668640488973224" departSpeed="0.32935538" id="337" type="passenger">
		<route edges="41622 41863"/>
	</vehicle>
	<vehicle depart="0.1" departLane="0" departPos="32.971842556483935" departSpeed="1.9486923" id="339" type="passenger">
		<route edges="41622 41863"/>
	</vehicle>
</routes>
