<!-- generated on Tue Feb  9 22:13:42 2021 by Eclipse SUMO netconvert Version 1.8.0
<configuration xmlns:xsi="http://www.w3.org/2001/XMLSchema-instance" xsi:noNamespaceSchemaLocation="http://sumo.dlr.de/xsd/netconvertConfiguration.xsd">

    <input>
        <node-files value="./converted_scenarios/scenario-factory/ITA_CarpiCentro-1_4_I-1-1/ITA_CarpiCentro-1_4_I-1-1.nod.xml"/>
        <edge-files value="./converted_scenarios/scenario-factory/ITA_CarpiCentro-1_4_I-1-1/ITA_CarpiCentro-1_4_I-1-1.edg.xml"/>
        <connection-files value="./converted_scenarios/scenario-factory/ITA_CarpiCentro-1_4_I-1-1/ITA_CarpiCentro-1_4_I-1-1.con.xml"/>
        <tllogic-files value="./converted_scenarios/scenario-factory/ITA_CarpiCentro-1_4_I-1-1/ITA_CarpiCentro-1_4_I-1-1.tll.xml"/>
        <type-files value="/home/zen/commonroad-interactive-benchmarks/install/commonroad-map-tool/crmapconverter/sumo_map/templates/DEU.typ.xml"/>
    </input>

    <output>
        <output-file value="./converted_scenarios/scenario-factory/ITA_CarpiCentro-1_4_I-1-1/ITA_CarpiCentro-1_4_I-1-1.net.xml"/>
    </output>

    <processing>
        <geometry.remove.keep-edges.explicit value="true"/>
        <geometry.avoid-overlap value="true"/>
        <offset.disable-normalization value="true"/>
    </processing>

    <junctions>
        <no-turnarounds value="true"/>
        <junctions.internal-link-detail value="20"/>
    </junctions>

    <report>
        <aggregate-warnings value="5"/>
    </report>

    <random_number>
        <seed value="1234"/>
    </random_number>

</configuration>
--><net xmlns:xsi="http://www.w3.org/2001/XMLSchema-instance" version="1.6" junctionCornerDetail="5" junctionLinkDetail="20" limitTurnSpeed="5.50" xsi:noNamespaceSchemaLocation="http://sumo.dlr.de/xsd/net_file.xsd">

    <location netOffset="0.00,0.00" convBoundary="-907.79,141.07,-747.95,351.50" origBoundary="-907.79,141.07,-735.81,351.50" projParameter="!"/>

    <type id="highway.bridleway" priority="1" speed="2.78" allow="pedestrian" oneway="1" width="2.00"/>
    <type id="highway.bus_guideway" priority="1" speed="27.78" allow="bus" oneway="1"/>
    <type id="highway.cycleway" priority="1" speed="8.33" allow="bicycle" oneway="0" width="1.00"/>
    <type id="highway.footway" priority="1" speed="2.78" allow="pedestrian" oneway="1" width="2.00"/>
    <type id="highway.ford" priority="1" speed="2.78" allow="army" oneway="0"/>
    <type id="highway.living_street" priority="2" speed="2.78" disallow="tram rail_urban rail rail_electric rail_fast ship" oneway="0"/>
    <type id="highway.motorway" priority="14" speed="39.44" allow="private emergency authority army vip passenger hov taxi bus coach delivery truck trailer motorcycle evehicle custom1 custom2" oneway="1"/>
    <type id="highway.motorway_link" priority="9" speed="22.22" allow="private emergency authority army vip passenger hov taxi bus coach delivery truck trailer motorcycle evehicle custom1 custom2" oneway="1"/>
    <type id="highway.path" priority="1" speed="2.78" allow="pedestrian bicycle" oneway="0" width="2.00"/>
    <type id="highway.pedestrian" priority="1" speed="2.78" allow="pedestrian" oneway="1" width="2.00"/>
    <type id="highway.primary" priority="12" speed="27.78" disallow="pedestrian tram rail_urban rail rail_electric rail_fast ship" oneway="0"/>
    <type id="highway.primary_link" priority="7" speed="22.22" disallow="pedestrian tram rail_urban rail rail_electric rail_fast ship" oneway="0"/>
    <type id="highway.raceway" priority="15" speed="83.33" allow="vip" oneway="0"/>
    <type id="highway.residential" priority="3" speed="13.89" disallow="pedestrian tram rail_urban rail rail_electric rail_fast ship" oneway="0"/>
    <type id="highway.secondary" priority="11" speed="27.78" disallow="pedestrian tram rail_urban rail rail_electric rail_fast ship" oneway="0"/>
    <type id="highway.secondary_link" priority="6" speed="22.22" disallow="pedestrian tram rail_urban rail rail_electric rail_fast ship" oneway="0"/>
    <type id="highway.service" priority="1" speed="5.56" allow="pedestrian delivery bicycle" oneway="0"/>
    <type id="highway.stairs" priority="1" speed="1.39" allow="pedestrian" oneway="1" width="2.00"/>
    <type id="highway.step" priority="1" speed="1.39" allow="pedestrian" oneway="1" width="2.00"/>
    <type id="highway.steps" priority="1" speed="1.39" allow="pedestrian" oneway="1" width="2.00"/>
    <type id="highway.tertiary" priority="10" speed="22.22" disallow="pedestrian tram rail_urban rail rail_electric rail_fast ship" oneway="0"/>
    <type id="highway.tertiary_link" priority="5" speed="22.22" disallow="pedestrian tram rail_urban rail rail_electric rail_fast ship" oneway="0"/>
    <type id="highway.track" priority="1" speed="5.56" allow="pedestrian motorcycle moped bicycle" oneway="0"/>
    <type id="highway.trunk" priority="13" speed="27.78" disallow="pedestrian bicycle tram rail_urban rail rail_electric rail_fast ship" oneway="0"/>
    <type id="highway.trunk_link" priority="8" speed="22.22" disallow="pedestrian bicycle tram rail_urban rail rail_electric rail_fast ship" oneway="0"/>
    <type id="highway.unclassified" priority="4" speed="13.89" disallow="pedestrian tram rail_urban rail rail_electric rail_fast ship" oneway="0"/>
    <type id="highway.unsurfaced" priority="1" speed="8.33" disallow="tram rail_urban rail rail_electric rail_fast ship" oneway="0"/>
    <type id="railway.highspeed" priority="21" speed="69.44" allow="rail_fast" oneway="1"/>
    <type id="railway.light_rail" priority="19" speed="27.78" allow="rail_urban" oneway="1"/>
    <type id="railway.preserved" priority="16" speed="27.78" allow="rail" oneway="1"/>
    <type id="railway.rail" priority="20" speed="44.44" allow="rail" oneway="1"/>
    <type id="railway.subway" priority="18" speed="27.78" allow="rail_urban" oneway="1"/>
    <type id="railway.tram" priority="17" speed="13.89" allow="tram" oneway="1"/>

    <edge id=":19_0" function="internal">
        <lane id=":19_0_0" index="0" disallow="pedestrian tram rail_urban rail rail_electric rail_fast ship" speed="36.11" length="3.58" width="3.50" shape="-767.74,150.98 -768.00,151.02 -768.24,151.06 -768.45,151.11 -768.65,151.15 -768.82,151.19 -768.98,151.23 -769.13,151.27 -769.28,151.31 -769.41,151.35 -769.55,151.40 -769.68,151.44 -769.82,151.49 -769.97,151.54 -770.13,151.60 -770.30,151.66 -770.49,151.72 -770.69,151.79 -770.92,151.87 -771.18,151.95"/>
    </edge>
    <edge id=":3_0" function="internal">
        <lane id=":3_0_0" index="0" disallow="pedestrian tram rail_urban rail rail_electric rail_fast ship" speed="36.11" length="7.87" width="3.50" shape="-746.29,165.44 -746.54,164.90 -746.75,164.42 -746.94,163.98 -747.11,163.57 -747.27,163.21 -747.41,162.87 -747.54,162.55 -747.66,162.25 -747.79,161.96 -747.91,161.67 -748.05,161.39 -748.19,161.09 -748.35,160.79 -748.53,160.47 -748.73,160.13 -748.96,159.76 -749.22,159.36 -749.51,158.92 -749.84,158.44"/>
    </edge>
    <edge id=":33_0" function="internal">
        <lane id=":33_0_0" index="0" disallow="pedestrian tram rail_urban rail rail_electric rail_fast ship" speed="11.25" length="29.11" width="3.50" shape="-819.08,194.04 -820.70,190.91 -821.95,189.02 -823.38,187.28 -825.01,185.74 -825.85,185.11 -826.76,184.53 -827.72,184.04 -828.71,183.63 -829.73,183.31 -830.78,183.09 -831.85,182.95 -832.91,182.89 -835.15,183.03 -837.37,183.44 -839.55,184.08 -842.79,185.39"/>
    </edge>
    <edge id=":33_1" function="internal">
        <lane id=":33_1_0" index="0" disallow="pedestrian tram rail_urban rail rail_electric rail_fast ship" speed="36.11" length="38.44" width="3.50" shape="-819.08,194.04 -825.47,179.80 -834.53,158.84"/>
    </edge>
    <edge id=":33_2" function="internal">
        <lane id=":33_2_0" index="0" disallow="pedestrian tram rail_urban rail rail_electric rail_fast ship" speed="9.17" length="18.26" width="3.50" shape="-817.31,174.95 -817.53,175.37 -818.27,177.54 -818.65,179.81 -818.71,182.10 -818.39,184.95 -817.73,187.74 -816.59,190.98 -815.91,192.57"/>
    </edge>
    <edge id=":33_3" function="internal">
        <lane id=":33_3_0" index="0" disallow="pedestrian tram rail_urban rail rail_electric rail_fast ship" speed="36.11" length="27.48" width="3.50" shape="-818.68,172.23 -832.89,180.35 -840.06,184.09 -842.79,185.39"/>
    </edge>
    <edge id=":33_4" function="internal">
        <lane id=":33_4_0" index="0" disallow="pedestrian tram rail_urban rail rail_electric rail_fast ship" speed="9.18" length="19.89" width="3.50" shape="-819.77,170.08 -820.00,170.10 -822.38,169.97 -824.13,169.60 -825.81,168.99 -827.39,168.15 -828.84,167.10 -830.54,165.44 -832.01,163.55 -833.53,160.99 -834.53,158.84"/>
    </edge>
    <edge id=":33_5" function="internal">
        <lane id=":33_5_0" index="0" disallow="pedestrian tram rail_urban rail rail_electric rail_fast ship" speed="36.11" length="38.32" width="3.50" shape="-831.31,157.48 -822.27,178.39 -815.91,192.57"/>
    </edge>
    <edge id=":33_6" function="internal">
        <lane id=":33_6_0" index="0" disallow="pedestrian tram rail_urban rail rail_electric rail_fast ship" speed="12.35" length="34.25" width="3.50" shape="-831.31,157.48 -830.83,158.67 -830.02,161.10 -829.42,163.64 -829.10,166.26 -829.12,168.90 -829.28,170.27 -829.56,171.60 -829.94,172.91 -830.43,174.18 -831.03,175.40 -831.74,176.59 -833.34,178.70 -835.21,180.57 -837.25,182.20 -839.42,183.62 -842.79,185.39"/>
    </edge>
    <edge id=":33_7" function="internal">
        <lane id=":33_7_0" index="0" disallow="pedestrian tram rail_urban rail rail_electric rail_fast ship" speed="11.36" length="28.81" width="3.50" shape="-844.27,182.22 -841.33,180.67 -839.47,179.46 -837.73,178.09 -836.16,176.52 -834.82,174.76 -834.25,173.81 -833.76,172.82 -833.35,171.79 -833.04,170.72 -832.81,169.64 -832.67,168.54 -832.64,166.32 -832.91,164.12 -833.42,161.96 -834.12,159.86 -834.53,158.84"/>
    </edge>
    <edge id=":33_8" function="internal">
        <lane id=":33_8_0" index="0" disallow="pedestrian tram rail_urban rail rail_electric rail_fast ship" speed="12.24" length="34.71" width="3.50" shape="-844.27,182.22 -840.56,180.72 -838.00,179.97 -835.37,179.48 -832.71,179.32 -831.37,179.39 -830.05,179.56 -828.74,179.84 -827.47,180.24 -826.24,180.75 -825.05,181.36 -823.92,182.08 -822.86,182.88 -820.92,184.72 -819.22,186.78 -817.76,189.01 -815.91,192.57"/>
    </edge>
    <edge id=":34_0" function="internal">
        <lane id=":34_0_0" index="0" disallow="pedestrian tram rail_urban rail rail_electric rail_fast ship" speed="11.01" length="28.58" width="3.50" shape="-772.48,309.97 -773.84,306.96 -774.94,305.06 -776.25,303.29 -777.77,301.70 -778.61,301.00 -779.51,300.37 -780.47,299.83 -781.47,299.37 -782.51,299.01 -783.57,298.74 -784.66,298.57 -785.76,298.49 -787.95,298.57 -790.12,298.92 -792.25,299.49 -795.33,300.66"/>
    </edge>
    <edge id=":34_1" function="internal">
        <lane id=":34_1_0" index="0" disallow="pedestrian tram rail_urban rail rail_electric rail_fast ship" speed="36.11" length="38.65" width="3.50" shape="-772.48,309.97 -783.66,280.73 -786.23,273.85"/>
    </edge>
    <edge id=":34_2" function="internal">
        <lane id=":34_2_0" index="0" disallow="pedestrian tram rail_urban rail rail_electric rail_fast ship" speed="36.11" length="38.56" width="3.50" shape="-782.95,272.63 -780.39,279.49 -769.23,308.67"/>
    </edge>
    <edge id=":34_3" function="internal">
        <lane id=":34_3_0" index="0" disallow="pedestrian tram rail_urban rail rail_electric rail_fast ship" speed="12.54" length="34.71" width="3.50" shape="-782.95,272.63 -781.79,276.34 -781.28,278.86 -781.02,281.41 -781.07,283.98 -781.48,286.52 -781.82,287.75 -782.26,288.96 -782.79,290.13 -784.13,292.32 -785.76,294.30 -787.64,296.06 -789.69,297.60 -791.88,298.95 -795.33,300.66"/>
    </edge>
    <edge id=":34_4" function="internal">
        <lane id=":34_4_0" index="0" disallow="pedestrian tram rail_urban rail rail_electric rail_fast ship" speed="11.56" length="29.34" width="3.50" shape="-796.74,297.45 -793.70,295.95 -791.82,294.79 -790.06,293.48 -788.48,292.01 -787.12,290.37 -786.01,288.54 -785.59,287.62 -785.23,286.64 -784.95,285.66 -784.61,283.54 -784.56,281.40 -784.78,279.24 -785.22,277.10 -786.23,273.85"/>
    </edge>
    <edge id=":34_5" function="internal">
        <lane id=":34_5_0" index="0" disallow="pedestrian tram rail_urban rail rail_electric rail_fast ship" speed="12.02" length="34.30" width="3.50" shape="-796.74,297.45 -793.17,296.10 -790.66,295.43 -788.07,295.01 -785.44,294.92 -784.07,295.02 -782.72,295.24 -781.40,295.57 -780.10,296.02 -778.85,296.59 -777.66,297.28 -776.55,298.06 -775.48,298.94 -773.66,300.85 -772.10,302.97 -770.79,305.22 -769.23,308.67"/>
    </edge>
    <edge id=":35_0" function="internal">
        <lane id=":35_0_0" index="0" disallow="pedestrian tram rail_urban rail rail_electric rail_fast ship" speed="11.00" length="28.95" width="3.50" shape="-794.78,250.87 -796.17,247.65 -797.28,245.67 -798.57,243.85 -800.08,242.22 -800.88,241.54 -801.75,240.92 -802.67,240.38 -803.62,239.93 -804.62,239.58 -805.65,239.32 -806.71,239.15 -807.76,239.07 -809.99,239.15 -812.20,239.52 -814.39,240.11 -817.65,241.37"/>
    </edge>
    <edge id=":35_1" function="internal">
        <lane id=":35_1_0" index="0" disallow="pedestrian tram rail_urban rail rail_electric rail_fast ship" speed="36.11" length="39.01" width="3.50" shape="-794.78,250.87 -799.97,237.45 -805.49,224.18 -809.64,214.81"/>
    </edge>
    <edge id=":35_2" function="internal">
        <lane id=":35_2_0" index="0" disallow="pedestrian tram rail_urban rail rail_electric rail_fast ship" speed="9.15" length="21.04" width="3.50" shape="-794.78,250.87 -795.90,247.37 -796.52,244.39 -796.74,241.97 -796.65,239.54 -796.33,237.74 -795.76,236.01 -794.93,234.39 -793.86,232.91 -792.59,231.60 -792.32,231.39"/>
    </edge>
    <edge id=":35_3" function="internal">
        <lane id=":35_3_0" index="0" disallow="pedestrian tram rail_urban rail rail_electric rail_fast ship" speed="10.10" length="19.11" width="3.50" shape="-806.46,213.36 -804.95,216.31 -803.14,219.10 -801.38,221.23 -799.37,223.13 -797.11,224.73 -795.15,225.75 -793.31,226.42"/>
    </edge>
    <edge id=":35_4" function="internal">
        <lane id=":35_4_0" index="0" disallow="pedestrian tram rail_urban rail rail_electric rail_fast ship" speed="36.11" length="39.23" width="3.50" shape="-806.46,213.36 -802.27,222.80 -796.72,236.14 -791.51,249.62"/>
    </edge>
    <edge id=":35_5" function="internal">
        <lane id=":35_5_0" index="0" disallow="pedestrian tram rail_urban rail rail_electric rail_fast ship" speed="12.21" length="34.59" width="3.50" shape="-806.46,213.36 -805.94,214.55 -805.05,216.97 -804.37,219.50 -803.96,222.13 -803.90,224.79 -804.02,226.18 -804.26,227.53 -804.62,228.86 -805.09,230.16 -805.68,231.41 -806.37,232.59 -807.16,233.71 -808.04,234.78 -809.92,236.63 -812.00,238.25 -814.22,239.64 -817.65,241.37"/>
    </edge>
    <edge id=":35_6" function="internal">
        <lane id=":35_6_0" index="0" disallow="pedestrian tram rail_urban rail rail_electric rail_fast ship" speed="11.21" length="28.96" width="3.50" shape="-819.07,238.17 -816.08,236.67 -814.19,235.48 -812.43,234.12 -810.84,232.56 -810.13,231.70 -809.49,230.79 -808.92,229.83 -808.44,228.82 -808.06,227.78 -807.77,226.70 -807.57,225.60 -807.46,224.50 -807.51,222.27 -807.85,220.07 -808.43,217.92 -809.20,215.83 -809.64,214.81"/>
    </edge>
    <edge id=":35_7" function="internal">
        <lane id=":35_7_0" index="0" disallow="pedestrian tram rail_urban rail rail_electric rail_fast ship" speed="36.11" length="27.82" width="3.50" shape="-819.07,238.17 -812.46,235.45 -805.25,232.89 -797.44,230.53 -792.73,229.33"/>
    </edge>
    <edge id=":35_8" function="internal">
        <lane id=":35_8_0" index="0" disallow="pedestrian tram rail_urban rail rail_electric rail_fast ship" speed="12.01" length="34.74" width="3.50" shape="-819.07,238.17 -815.32,236.73 -812.74,236.03 -810.11,235.59 -807.44,235.49 -806.10,235.60 -804.78,235.81 -803.49,236.14 -802.23,236.59 -801.02,237.15 -799.87,237.83 -798.78,238.61 -797.77,239.48 -795.95,241.44 -794.41,243.62 -793.10,245.95 -791.51,249.62"/>
    </edge>

    <edge id="41621" from="33" to="21" priority="3" type="highway.residential" spreadType="center" length="70.00" shape="-827.31,178.33 -906.31,214.81">
        <lane id="41621_0" index="0" disallow="pedestrian tram rail_urban rail rail_electric rail_fast ship" speed="36.11" length="70.00" width="3.50" customShape="1" shape="-842.79,185.39 -906.31,214.81"/>
    </edge>
    <edge id="41622" from="29" to="33" priority="3" type="highway.residential" spreadType="center" length="70.01" shape="-907.79,211.64 -828.78,175.15">
        <lane id="41622_0" index="0" disallow="pedestrian tram rail_urban rail rail_electric rail_fast ship" speed="36.11" length="70.01" width="3.50" customShape="1" shape="-907.79,211.64 -844.26,182.22"/>
    </edge>
    <edge id="41645" from="34" to="35" priority="3" type="highway.residential" spreadType="center" length="24.55" shape="-785.49,294.41 -804.63,234.05">
        <lane id="41645_0" index="0" disallow="pedestrian tram rail_urban rail rail_electric rail_fast ship" speed="36.11" length="24.55" width="3.50" customShape="1" shape="-786.23,273.85 -790.50,262.36 -794.79,250.84"/>
    </edge>
    <edge id="41646" from="35" to="34" priority="3" type="highway.residential" spreadType="center" length="24.58" shape="-801.30,232.99 -782.16,293.35">
        <lane id="41646_0" index="0" disallow="pedestrian tram rail_urban rail rail_electric rail_fast ship" speed="36.11" length="24.58" width="3.50" customShape="1" shape="-791.51,249.62 -787.22,261.14 -782.94,272.66"/>
    </edge>
    <edge id="41648" from="32" to="34" priority="3" type="highway.residential" spreadType="center" length="44.60" shape="-756.31,351.50 -785.40,294.63">
        <lane id="41648_0" index="0" disallow="pedestrian tram rail_urban rail rail_electric rail_fast ship" speed="36.11" length="44.60" width="3.50" customShape="1" shape="-756.31,351.50 -764.39,330.74 -772.49,309.94"/>
    </edge>
    <edge id="41649" from="34" to="27" priority="3" type="highway.residential" spreadType="center" length="44.60" shape="-782.29,293.04 -753.04,350.23">
        <lane id="41649_0" index="0" disallow="pedestrian tram rail_urban rail rail_electric rail_fast ship" speed="36.11" length="44.60" width="3.50" customShape="1" shape="-769.23,308.67 -761.13,329.47 -753.04,350.23"/>
    </edge>
    <edge id="41709" from="35" to="6" priority="3" type="highway.residential" spreadType="center" length="70.00" shape="-802.22,235.16 -881.67,269.69">
        <lane id="41709_0" index="0" disallow="pedestrian tram rail_urban rail rail_electric rail_fast ship" speed="36.11" length="70.00" width="3.50" customShape="1" shape="-817.65,241.37 -881.67,269.69"/>
    </edge>
    <edge id="41710" from="12" to="35" priority="3" type="highway.residential" spreadType="center" length="70.00" shape="-883.08,266.48 -803.62,231.95">
        <lane id="41710_0" index="0" disallow="pedestrian tram rail_urban rail rail_electric rail_fast ship" speed="36.11" length="70.00" width="3.50" customShape="1" shape="-883.08,266.48 -819.06,238.16"/>
    </edge>
    <edge id="41732" from="35" to="3" priority="3" type="highway.residential" spreadType="center" length="105.10">
        <lane id="41732_0" index="0" disallow="pedestrian tram rail_urban rail rail_electric rail_fast ship" speed="36.11" length="105.10" width="3.50" customShape="1" shape="-792.79,229.03 -767.54,223.97 -761.10,222.34 -756.23,220.77 -751.98,219.03 -748.34,217.16 -745.32,215.25 -742.49,213.07 -739.87,210.62 -737.83,208.34 -736.99,207.06 -736.39,205.65 -735.94,203.66 -735.81,201.11 -736.13,196.52 -736.78,191.97 -737.90,186.98 -739.52,181.60 -741.67,175.86 -745.15,167.90 -746.29,165.44"/>
    </edge>
    <edge id="41734" from="19" to="33" priority="3" type="highway.residential" spreadType="center" length="51.79">
        <lane id="41734_0" index="0" disallow="pedestrian tram rail_urban rail rail_electric rail_fast ship" speed="36.11" length="51.79" width="3.50" customShape="1" shape="-771.18,151.95 -781.12,155.01 -789.26,157.90 -796.31,160.79 -804.13,164.46 -818.85,171.90"/>
    </edge>
    <edge id="41764" from="34" to="28" priority="3" type="highway.residential" spreadType="center" length="70.00" shape="-783.09,295.47 -859.46,328.72">
        <lane id="41764_0" index="0" disallow="pedestrian tram rail_urban rail rail_electric rail_fast ship" speed="36.11" length="70.00" width="3.50" customShape="1" shape="-795.33,300.66 -859.46,328.72"/>
    </edge>
    <edge id="41765" from="30" to="34" priority="3" type="highway.residential" spreadType="center" length="70.00" shape="-860.86,325.52 -784.49,292.26">
        <lane id="41765_0" index="0" disallow="pedestrian tram rail_urban rail rail_electric rail_fast ship" speed="36.11" length="70.00" width="3.50" customShape="1" shape="-860.86,325.52 -796.73,297.45"/>
    </edge>
    <edge id="41859" from="33" to="35" priority="3" type="highway.residential" spreadType="center" length="22.84" shape="-826.48,176.05 -801.33,232.90">
        <lane id="41859_0" index="0" disallow="pedestrian tram rail_urban rail rail_electric rail_fast ship" speed="36.11" length="22.84" width="3.50" customShape="1" shape="-815.91,192.57 -811.18,202.96 -806.45,213.36"/>
    </edge>
    <edge id="41860" from="35" to="33" priority="3" type="highway.residential" spreadType="center" length="22.84" shape="-804.53,234.32 -829.68,177.46">
        <lane id="41860_0" index="0" disallow="pedestrian tram rail_urban rail rail_electric rail_fast ship" speed="36.11" length="22.84" width="3.50" customShape="1" shape="-809.64,214.81 -814.37,204.41 -819.09,194.02"/>
    </edge>
    <edge id="41862" from="31" to="33" priority="3" type="highway.residential" spreadType="center" length="17.81" shape="-838.24,141.07 -826.40,176.28">
        <lane id="41862_0" index="0" disallow="pedestrian tram rail_urban rail rail_electric rail_fast ship" speed="36.11" length="17.81" width="3.50" customShape="1" shape="-838.24,141.07 -834.78,149.27 -831.31,157.48"/>
    </edge>
    <edge id="41863" from="33" to="20" priority="3" type="highway.residential" spreadType="center" length="17.81" shape="-829.71,177.39 -841.47,142.44">
        <lane id="41863_0" index="0" disallow="pedestrian tram rail_urban rail rail_electric rail_fast ship" speed="36.11" length="17.81" width="3.50" customShape="1" shape="-834.53,158.84 -838.00,150.63 -841.47,142.44"/>
    </edge>
    <edge id="42156" from="3" to="19" priority="3" type="highway.residential" spreadType="center" length="20.89">
        <lane id="42156_0" index="0" disallow="pedestrian tram rail_urban rail rail_electric rail_fast ship" speed="36.11" length="20.89" width="3.50" customShape="1" shape="-749.84,158.44 -751.14,156.54 -752.64,154.85 -754.35,153.35 -756.25,152.13 -758.33,151.23 -760.52,150.67 -762.77,150.45 -765.03,150.53 -767.74,150.98"/>
    </edge>

    <junction id="12" type="dead_end" x="-883.08" y="266.48" incLanes="" intLanes="" shape="-882.37,268.08 -883.79,264.88" rightOfWay="edgePriority"/>
    <junction id="19" type="priority" x="-769.47" y="151.42" incLanes="42156_0" intLanes=":19_0_0" shape="-767.29,152.68 -768.18,149.28 -769.51,149.55 -769.96,149.69 -770.96,150.04 -771.69,150.28 -770.66,153.62 -769.43,153.21 -769.00,153.06 -768.56,152.93 -768.03,152.81" rightOfWay="edgePriority">
        <request index="0" response="0" foes="0" cont="0"/>
    </junction>
    <junction id="20" type="dead_end" x="-841.47" y="142.44" incLanes="41863_0" intLanes="" shape="-843.08,143.12 -839.86,141.75" rightOfWay="edgePriority"/>
    <junction id="21" type="dead_end" x="-906.31" y="214.81" incLanes="41621_0" intLanes="" shape="-905.58,216.40 -907.05,213.23" rightOfWay="edgePriority"/>
    <junction id="27" type="dead_end" x="-753.04" y="350.23" incLanes="41649_0" intLanes="" shape="-751.41,349.60 -754.67,350.87" rightOfWay="edgePriority"/>
    <junction id="28" type="dead_end" x="-859.46" y="328.72" incLanes="41764_0" intLanes="" shape="-858.76,330.33 -860.16,327.12" rightOfWay="edgePriority"/>
    <junction id="29" type="dead_end" x="-907.79" y="211.64" incLanes="" intLanes="" shape="-907.06,213.23 -908.52,210.06" rightOfWay="edgePriority"/>
    <junction id="3" type="priority" x="-747.95" y="161.87" incLanes="41732_0" intLanes=":3_0_0" shape="-748.28,157.61 -751.40,159.26 -749.87,161.69 -749.42,162.60 -749.03,163.53 -748.55,164.66 -747.88,166.17 -744.71,164.70 -745.87,161.99 -746.28,161.03 -746.73,160.10 -747.35,159.02" rightOfWay="edgePriority">
        <request index="0" response="0" foes="0" cont="0"/>
    </junction>
    <junction id="30" type="dead_end" x="-860.86" y="325.52" incLanes="" intLanes="" shape="-860.16,327.12 -861.56,323.91" rightOfWay="edgePriority"/>
    <junction id="31" type="dead_end" x="-838.24" y="141.07" incLanes="" intLanes="" shape="-839.85,141.75 -836.63,140.39" rightOfWay="edgePriority"/>
    <junction id="32" type="dead_end" x="-756.31" y="351.50" incLanes="" intLanes="" shape="-754.68,350.86 -757.94,352.13" rightOfWay="edgePriority"/>
    <junction id="33" type="priority" x="-828.08" y="176.76" incLanes="41860_0 41734_0 41862_0 41622_0" intLanes=":33_0_0 :33_1_0 :33_2_0 :33_3_0 :33_4_0 :33_5_0 :33_6_0 :33_7_0 :33_8_0" shape="-820.68,194.74 -814.31,191.85 -816.50,186.75 -818.06,182.47 -819.00,179.00 -819.31,176.34 -819.00,174.50 -818.06,173.46 -819.64,170.34 -822.34,169.63 -823.94,167.85 -825.70,165.12 -827.62,161.44 -829.70,156.80 -836.14,159.52 -834.72,164.06 -834.45,168.19 -835.35,171.91 -837.41,175.23 -840.62,178.13 -845.00,180.63 -842.06,186.98 -837.37,185.30 -833.13,184.81 -829.34,185.51 -826.01,187.40 -823.12,190.47">
        <request index="0" response="000001000" foes="001001000" cont="0"/>
        <request index="1" response="110011000" foes="111011000" cont="0"/>
        <request index="2" response="000000000" foes="100100000" cont="0"/>
        <request index="3" response="000000000" foes="101100011" cont="0"/>
        <request index="4" response="010000000" foes="011100010" cont="0"/>
        <request index="5" response="100011100" foes="100011100" cont="0"/>
        <request index="6" response="100011011" foes="100011011" cont="0"/>
        <request index="7" response="000000000" foes="000010010" cont="0"/>
        <request index="8" response="000001100" foes="001101110" cont="0"/>
    </junction>
    <junction id="34" type="priority" x="-783.83" y="293.88" incLanes="41648_0 41646_0 41765_0" intLanes=":34_0_0 :34_1_0 :34_2_0 :34_3_0 :34_4_0 :34_5_0" shape="-774.12,310.58 -767.60,308.04 -781.31,272.02 -787.87,274.46 -786.61,279.16 -786.49,283.41 -787.51,287.21 -789.68,290.54 -792.99,293.42 -797.44,295.85 -794.63,302.26 -789.96,300.70 -785.79,300.31 -782.13,301.11 -778.96,303.09 -776.29,306.24">
        <request index="0" response="000000" foes="001000" cont="0"/>
        <request index="1" response="000000" foes="111000" cont="0"/>
        <request index="2" response="000000" foes="100000" cont="0"/>
        <request index="3" response="000011" foes="100011" cont="0"/>
        <request index="4" response="000010" foes="000010" cont="0"/>
        <request index="5" response="001110" foes="001110" cont="0"/>
    </junction>
    <junction id="35" type="priority" x="-802.95" y="233.57" incLanes="41645_0 41859_0 41710_0" intLanes=":35_0_0 :35_1_0 :35_2_0 :35_3_0 :35_4_0 :35_5_0 :35_6_0 :35_7_0 :35_8_0" shape="-796.43,251.45 -789.87,249.02 -791.75,243.65 -793.05,239.21 -793.77,235.70 -793.91,233.12 -793.47,231.47 -792.45,230.74 -793.14,227.31 -796.50,226.09 -798.38,224.11 -800.41,221.20 -802.57,217.38 -804.86,212.63 -811.23,215.53 -809.66,220.11 -809.28,224.25 -810.10,227.97 -812.13,231.27 -815.35,234.13 -819.78,236.57 -816.94,242.97 -812.23,241.37 -808.04,240.98 -804.36,241.79 -801.20,243.81 -798.56,247.03">
        <request index="0" response="000000000" foes="000100000" cont="0"/>
        <request index="1" response="000000000" foes="111100000" cont="0"/>
        <request index="2" response="000011000" foes="110011000" cont="0"/>
        <request index="3" response="000000000" foes="010000100" cont="0"/>
        <request index="4" response="000000000" foes="110000100" cont="0"/>
        <request index="5" response="000000011" foes="110000011" cont="0"/>
        <request index="6" response="000000010" foes="000000010" cont="0"/>
        <request index="7" response="000111110" foes="000111110" cont="0"/>
        <request index="8" response="000110110" foes="000110110" cont="0"/>
    </junction>
    <junction id="6" type="dead_end" x="-881.67" y="269.69" incLanes="41709_0" intLanes="" shape="-880.96,271.29 -882.38,268.08" rightOfWay="edgePriority"/>

    <connection from="41622" to="41863" fromLane="0" toLane="0" contPos="-4.00" shape="-844.27,182.22 -841.33,180.67 -839.47,179.46 -837.73,178.09 -836.16,176.52 -834.82,174.76 -834.25,173.81 -833.76,172.82 -833.35,171.79 -833.04,170.72 -832.81,169.64 -832.67,168.54 -832.64,166.32 -832.91,164.12 -833.42,161.96 -834.12,159.86 -834.53,158.84" via=":33_7_0" dir="r" state="M"/>
    <connection from="41622" to="41859" fromLane="0" toLane="0" contPos="-4.00" shape="-844.27,182.22 -840.56,180.72 -838.00,179.97 -835.37,179.48 -832.71,179.32 -831.37,179.39 -830.05,179.56 -828.74,179.84 -827.47,180.24 -826.24,180.75 -825.05,181.36 -823.92,182.08 -822.86,182.88 -820.92,184.72 -819.22,186.78 -817.76,189.01 -815.91,192.57" via=":33_8_0" dir="l" state="m"/>
    <connection from="41645" to="41709" fromLane="0" toLane="0" contPos="-4.00" shape="-794.78,250.87 -796.17,247.65 -797.28,245.67 -798.57,243.85 -800.08,242.22 -800.88,241.54 -801.75,240.92 -802.67,240.38 -803.62,239.93 -804.62,239.58 -805.65,239.32 -806.71,239.15 -807.76,239.07 -809.99,239.15 -812.20,239.52 -814.39,240.11 -817.65,241.37" via=":35_0_0" dir="r" state="M"/>