<routes>
	<vehicle depart="0.1" departLane="0" departPos="25.499602312878622" departSpeed="0.10153198" id="324" type="passenger">
		<route edges=":150_2 40650"/>
	</vehicle>
	<vehicle depart="0.1" departLane="0" departPos="2.5" departSpeed="9.8847998" id="342" type="passenger">
		<route edges="40719 40716"/>
	</vehicle>
	<vehicle depart="0.1" departLane="0" departPos="23.727966967988586" departSpeed="0.92610488" id="380" type="passenger">
		<route edges=":154_2 40515"/>
	</vehicle>
	<vehicle depart="0.1" departLane="0" departPos="28.198270798751473" departSpeed="0.044810639" id="395" type="passenger">
		<route edges=":150_11 40719"/>
	</vehicle>
	<vehicle depart="0.1" departLane="0" departPos="20.383861479148525" departSpeed="0.75095849" id="3105" type="passenger">
		<route edges=":150_11 40719"/>
	</vehicle>
	<vehicle depart="0.1" departLane="0" departPos="5.515545878607217" departSpeed="1.9697657" id="3112" type="passenger">
		<route edges=":150_11 40719"/>
	</vehicle>
	<vehicle depart="0.1" departLane="0" departPos="54.36062505214255" departSpeed="2.5223009" id="3130" type="passenger">
		<route edges="40647 40650"/>
	</vehicle>
	<vehicle depart="0.1" departLane="0" departPos="41.558983313082" departSpeed="3.8034596" id="3138" type="passenger">
		<route edges="40647 40650"/>
	</vehicle>
	<vehicle depart="0.1" departLane="0" departPos="64.717988936398" departSpeed="2.7700573" id="3122" type="truck">
		<route edges="40647 40650 40464"/>
	</vehicle>
	<vehicle depart="0.1" departLane="0" departPos="30.14456383264148" departSpeed="5.0343736" id="3144" type="truck">
		<route edges="40647 40650"/>
	</vehicle>
</routes>
