<!-- generated on Wed Feb 10 12:25:45 2021 by Eclipse SUMO netconvert Version 1.8.0
<configuration xmlns:xsi="http://www.w3.org/2001/XMLSchema-instance" xsi:noNamespaceSchemaLocation="http://sumo.dlr.de/xsd/netconvertConfiguration.xsd">

    <input>
        <node-files value="./converted_scenarios/SUMO/DEU_Flensburg-48_1_I-1-1/DEU_Flensburg-48_1_I-1-1.nod.xml"/>
        <edge-files value="./converted_scenarios/SUMO/DEU_Flensburg-48_1_I-1-1/DEU_Flensburg-48_1_I-1-1.edg.xml"/>
        <connection-files value="./converted_scenarios/SUMO/DEU_Flensburg-48_1_I-1-1/DEU_Flensburg-48_1_I-1-1.con.xml"/>
        <tllogic-files value="./converted_scenarios/SUMO/DEU_Flensburg-48_1_I-1-1/DEU_Flensburg-48_1_I-1-1.tll.xml"/>
        <type-files value="/home/zen/commonroad-interactive-benchmarks/install/commonroad-map-tool/crmapconverter/sumo_map/templates/DEU.typ.xml"/>
    </input>

    <output>
        <output-file value="./converted_scenarios/SUMO/DEU_Flensburg-48_1_I-1-1/DEU_Flensburg-48_1_I-1-1.net.xml"/>
    </output>

    <processing>
        <geometry.remove.keep-edges.explicit value="true"/>
        <geometry.avoid-overlap value="true"/>
        <offset.disable-normalization value="true"/>
    </processing>

    <junctions>
        <no-turnarounds value="true"/>
        <junctions.internal-link-detail value="20"/>
    </junctions>

    <report>
        <aggregate-warnings value="5"/>
    </report>

    <random_number>
        <seed value="1234"/>
    </random_number>

</configuration>
--><net xmlns:xsi="http://www.w3.org/2001/XMLSchema-instance" version="1.6" junctionCornerDetail="5" junctionLinkDetail="20" limitTurnSpeed="5.50" xsi:noNamespaceSchemaLocation="http://sumo.dlr.de/xsd/net_file.xsd">

    <location netOffset="0.00,0.00" convBoundary="240.95,-728.24,323.38,-634.40" origBoundary="240.95,-728.24,323.38,-634.40" projParameter="!"/>

    <type id="highway.bridleway" priority="1" speed="2.78" allow="pedestrian" oneway="1" width="2.00"/>
    <type id="highway.bus_guideway" priority="1" speed="27.78" allow="bus" oneway="1"/>
    <type id="highway.cycleway" priority="1" speed="8.33" allow="bicycle" oneway="0" width="1.00"/>
    <type id="highway.footway" priority="1" speed="2.78" allow="pedestrian" oneway="1" width="2.00"/>
    <type id="highway.ford" priority="1" speed="2.78" allow="army" oneway="0"/>
    <type id="highway.living_street" priority="2" speed="2.78" disallow="tram rail_urban rail rail_electric rail_fast ship" oneway="0"/>
    <type id="highway.motorway" priority="14" speed="39.44" allow="private emergency authority army vip passenger hov taxi bus coach delivery truck trailer motorcycle evehicle custom1 custom2" oneway="1"/>
    <type id="highway.motorway_link" priority="9" speed="22.22" allow="private emergency authority army vip passenger hov taxi bus coach delivery truck trailer motorcycle evehicle custom1 custom2" oneway="1"/>
    <type id="highway.path" priority="1" speed="2.78" allow="pedestrian bicycle" oneway="0" width="2.00"/>
    <type id="highway.pedestrian" priority="1" speed="2.78" allow="pedestrian" oneway="1" width="2.00"/>
    <type id="highway.primary" priority="12" speed="27.78" disallow="pedestrian tram rail_urban rail rail_electric rail_fast ship" oneway="0"/>
    <type id="highway.primary_link" priority="7" speed="22.22" disallow="pedestrian tram rail_urban rail rail_electric rail_fast ship" oneway="0"/>
    <type id="highway.raceway" priority="15" speed="83.33" allow="vip" oneway="0"/>
    <type id="highway.residential" priority="3" speed="13.89" disallow="pedestrian tram rail_urban rail rail_electric rail_fast ship" oneway="0"/>
    <type id="highway.secondary" priority="11" speed="27.78" disallow="pedestrian tram rail_urban rail rail_electric rail_fast ship" oneway="0"/>
    <type id="highway.secondary_link" priority="6" speed="22.22" disallow="pedestrian tram rail_urban rail rail_electric rail_fast ship" oneway="0"/>
    <type id="highway.service" priority="1" speed="5.56" allow="pedestrian delivery bicycle" oneway="0"/>
    <type id="highway.stairs" priority="1" speed="1.39" allow="pedestrian" oneway="1" width="2.00"/>
    <type id="highway.step" priority="1" speed="1.39" allow="pedestrian" oneway="1" width="2.00"/>
    <type id="highway.steps" priority="1" speed="1.39" allow="pedestrian" oneway="1" width="2.00"/>
    <type id="highway.tertiary" priority="10" speed="22.22" disallow="pedestrian tram rail_urban rail rail_electric rail_fast ship" oneway="0"/>
    <type id="highway.tertiary_link" priority="5" speed="22.22" disallow="pedestrian tram rail_urban rail rail_electric rail_fast ship" oneway="0"/>
    <type id="highway.track" priority="1" speed="5.56" allow="pedestrian motorcycle moped bicycle" oneway="0"/>
    <type id="highway.trunk" priority="13" speed="27.78" disallow="pedestrian bicycle tram rail_urban rail rail_electric rail_fast ship" oneway="0"/>
    <type id="highway.trunk_link" priority="8" speed="22.22" disallow="pedestrian bicycle tram rail_urban rail rail_electric rail_fast ship" oneway="0"/>
    <type id="highway.unclassified" priority="4" speed="13.89" disallow="pedestrian tram rail_urban rail rail_electric rail_fast ship" oneway="0"/>
    <type id="highway.unsurfaced" priority="1" speed="8.33" disallow="tram rail_urban rail rail_electric rail_fast ship" oneway="0"/>
    <type id="railway.highspeed" priority="21" speed="69.44" allow="rail_fast" oneway="1"/>
    <type id="railway.light_rail" priority="19" speed="27.78" allow="rail_urban" oneway="1"/>
    <type id="railway.preserved" priority="16" speed="27.78" allow="rail" oneway="1"/>
    <type id="railway.rail" priority="20" speed="44.44" allow="rail" oneway="1"/>
    <type id="railway.subway" priority="18" speed="27.78" allow="rail_urban" oneway="1"/>
    <type id="railway.tram" priority="17" speed="13.89" allow="tram" oneway="1"/>

    <edge id=":13_0" function="internal">
        <lane id=":13_0_0" index="0" disallow="pedestrian tram rail_urban rail rail_electric rail_fast ship" speed="7.41" length="10.70" width="3.49" shape="303.17,-644.99 301.98,-645.91 300.79,-646.65 299.50,-647.19 298.59,-647.40 297.66,-647.44 296.73,-647.30 295.85,-646.98 295.05,-646.50 293.77,-645.35"/>
    </edge>
    <edge id=":13_1" function="internal">
        <lane id=":13_1_0" index="0" disallow="pedestrian tram rail_urban rail rail_electric rail_fast ship" speed="16.58" length="17.35" width="3.50" shape="303.17,-644.99 302.63,-645.48 301.11,-647.11 299.52,-649.36 297.96,-652.17 296.46,-655.56 294.87,-660.00"/>
    </edge>
    <edge id=":13_2" function="internal">
        <lane id=":13_2_0" index="0" disallow="pedestrian tram rail_urban rail rail_electric rail_fast ship" speed="15.57" length="15.23" width="3.50" shape="298.22,-661.04 299.65,-656.99 300.99,-653.93 302.36,-651.41 303.72,-649.44 305.01,-648.04 305.32,-647.75"/>
    </edge>
    <edge id=":13_3" function="internal">
        <lane id=":13_3_0" index="0" disallow="pedestrian tram rail_urban rail rail_electric rail_fast ship" speed="10.92" length="17.21" width="3.49" shape="298.22,-661.04 298.77,-658.70 298.94,-656.89 298.86,-655.09 298.53,-653.31 297.97,-651.58 296.91,-649.42 295.56,-647.42 293.77,-645.35"/>
    </edge>
    <edge id=":13_4" function="internal">
        <lane id=":13_4_0" index="0" disallow="pedestrian tram rail_urban rail rail_electric rail_fast ship" speed="9.68" length="13.38" width="3.50" shape="291.31,-647.84 292.73,-649.48 293.82,-651.07 294.66,-652.78 295.10,-654.08 295.36,-655.43 295.43,-656.79 295.31,-658.14 294.87,-660.00"/>
    </edge>
    <edge id=":13_5" function="internal">
        <lane id=":13_5_0" index="0" disallow="pedestrian tram rail_urban rail rail_electric rail_fast ship" speed="8.87" length="15.80" width="3.50" shape="291.31,-647.84 293.00,-649.35 294.25,-650.14 295.66,-650.71 297.16,-650.99 298.66,-650.99 300.16,-650.70 302.08,-649.94 303.81,-648.90 305.32,-647.75"/>
    </edge>

    <edge id="236" from="13" to="2" priority="3" type="highway.residential" spreadType="center" length="70.00" shape="296.15,-650.74 275.30,-727.20">
        <lane id="236_0" index="0" disallow="pedestrian tram rail_urban rail rail_electric rail_fast ship" speed="36.11" length="70.00" width="3.50" customShape="1" shape="294.87,-660.00 292.80,-666.81 287.99,-684.26 284.09,-698.24 279.98,-711.39 276.39,-723.65 275.30,-727.20"/>
    </edge>
    <edge id="237" from="7" to="13" priority="3" type="highway.residential" spreadType="center" length="70.02" shape="278.64,-728.24 299.52,-651.66">
        <lane id="237_0" index="0" disallow="pedestrian tram rail_urban rail rail_electric rail_fast ship" speed="36.11" length="70.02" width="3.50" customShape="1" shape="278.64,-728.24 279.74,-724.64 283.32,-712.42 287.45,-699.23 291.36,-685.18 296.16,-667.78 298.22,-661.02"/>
    </edge>
    <edge id="239" from="11" to="13" priority="3" type="highway.residential" spreadType="center" length="21.52" shape="321.84,-634.40 296.82,-649.80">
        <lane id="239_0" index="0" disallow="pedestrian tram rail_urban rail rail_electric rail_fast ship" speed="36.11" length="21.52" width="3.50" customShape="1" shape="321.84,-634.40 314.91,-637.75 310.28,-640.22 305.30,-643.34 303.17,-644.99"/>
    </edge>
    <edge id="240" from="13" to="9" priority="3" type="highway.residential" spreadType="center" length="20.79" shape="298.65,-652.78 323.38,-637.55">
        <lane id="240_0" index="0" disallow="pedestrian tram rail_urban rail rail_electric rail_fast ship" speed="36.11" length="20.79" width="3.50" customShape="1" shape="305.32,-647.75 307.29,-646.22 312.03,-643.25 316.48,-640.88 323.38,-637.55"/>
    </edge>
    <edge id="259" from="12" to="13" priority="3" type="highway.residential" spreadType="center" length="69.78" shape="240.95,-680.24 298.62,-652.79">
        <lane id="259_0" index="0" disallow="pedestrian tram rail_urban rail rail_electric rail_fast ship" speed="36.11" length="69.78" width="3.50" customShape="1" shape="240.95,-680.24 243.41,-679.67 247.39,-678.43 250.46,-677.16 252.05,-676.23 253.51,-675.00 254.68,-673.58 257.47,-669.04 260.08,-663.92 263.41,-657.09 265.40,-653.69 267.12,-651.29 268.46,-649.87 271.64,-647.15 274.03,-645.39 275.68,-644.46 277.47,-643.73 279.31,-643.22 281.77,-642.83 283.60,-642.74 284.81,-642.94 285.96,-643.40 287.09,-644.10 289.39,-645.94 291.31,-647.84"/>
    </edge>
    <edge id="260" from="13" to="6" priority="3" type="highway.residential" spreadType="center" length="69.70" shape="297.10,-649.65 243.64,-675.94">
        <lane id="260_0" index="0" disallow="pedestrian tram rail_urban rail rail_electric rail_fast ship" speed="36.11" length="69.70" width="3.49" customShape="1" shape="293.77,-645.35 291.70,-643.32 289.08,-641.22 287.48,-640.25 285.65,-639.56 283.74,-639.25 281.36,-639.35 278.54,-639.81 276.31,-640.43 274.13,-641.33 272.12,-642.46 269.45,-644.43 266.03,-647.35 264.40,-649.10 262.46,-651.79 260.32,-655.44 256.94,-662.38 254.43,-667.32 251.84,-671.54 251.05,-672.52 250.07,-673.34 248.93,-674.02 246.21,-675.13 243.64,-675.94"/>
    </edge>

    <junction id="11" type="dead_end" x="321.84" y="-634.40" incLanes="" intLanes="" shape="322.60,-635.98 321.07,-632.83" rightOfWay="edgePriority"/>
    <junction id="12" type="dead_end" x="240.95" y="-680.24" incLanes="" intLanes="" shape="240.56,-678.53 241.35,-681.94" rightOfWay="edgePriority"/>
    <junction id="13" type="priority" x="297.82" y="-651.24" incLanes="239_0 237_0 259_0" intLanes=":13_0_0 :13_1_0 :13_2_0 :13_3_0 :13_4_0 :13_5_0" shape="302.10,-643.61 306.39,-649.13 304.14,-651.08 302.71,-652.77 301.84,-654.43 301.26,-656.30 300.70,-658.59 299.89,-661.53 293.20,-659.49 293.62,-655.83 293.28,-654.07 292.58,-652.36 291.52,-650.70 290.09,-649.09 294.99,-644.11 297.05,-645.30 298.19,-645.38 299.42,-645.13 300.72,-644.54">
        <request index="0" response="000000" foes="001000" cont="0"/>
        <request index="1" response="110000" foes="111000" cont="0"/>
        <request index="2" response="100000" foes="100000" cont="0"/>
        <request index="3" response="100011" foes="100011" cont="0"/>
        <request index="4" response="000000" foes="000010" cont="0"/>
        <request index="5" response="000000" foes="001110" cont="0"/>
    </junction>
    <junction id="2" type="dead_end" x="275.30" y="-727.20" incLanes="236_0" intLanes="" shape="273.63,-726.69 276.97,-727.72" rightOfWay="edgePriority"/>
    <junction id="6" type="dead_end" x="243.64" y="-675.94" incLanes="260_0" intLanes="" shape="243.12,-674.27 244.17,-677.60" rightOfWay="edgePriority"/>
    <junction id="7" type="dead_end" x="278.64" y="-728.24" incLanes="" intLanes="" shape="276.97,-727.73 280.31,-728.75" rightOfWay="edgePriority"/>
    <junction id="9" type="dead_end" x="323.38" y="-637.55" incLanes="240_0" intLanes="" shape="324.14,-639.12 322.62,-635.97" rightOfWay="edgePriority"/>

    <connection from="237" to="240" fromLane="0" toLane="0" contPos="-4.00" shape="298.22,-661.04 299.65,-656.99 300.99,-653.93 302.36,-651.41 303.72,-649.44 305.01,-648.04 305.32,-647.75" via=":13_2_0" dir="s" state="m"/>
    <connection from="237" to="260" fromLane="0" toLane="0" contPos="-4.00" shape="298.22,-661.04 298.77,-658.70 298.94,-656.89 298.86,-655.09 298.53,-653.31 297.97,-651.58 296.91,-649.42 295.56,-647.42 293.99,-645.57" via=":13_3_0" dir="l" state="m"/>
    <connection from="239" to="260" fromLane="0" toLane="0" contPos="-4.00" shape="303.08,-645.06 301.98,-645.91 300.79,-646.65 299.50,-647.19 298.59,-647.40 297.66,-647.44 296.73,-647.30 295.85,-646.98 295.05,-646.50 293.99,-645.57" via=":13_0_0" dir="s" state="M"/>
    <connection from="239" to="236" fromLane="0" toLane="0" contPos="-4.00" shape="303.08,-645.06 302.63,-645.48 301.11,-647.11 299.52,-649.36 297.96,-652.17 296.46,-655.56 294.87,-660.00" via=":13_1_0" dir="L" state="m"/>
    <connection from="259" to="236" fromLane="0" toLane="0" contPos="-4.00" shape="291.47,-648.00 292.73,-649.48 293.82,-651.07 294.66,-652.78 295.10,-654.08 295.36,-655.43 295.43,-656.79 295.31,-658.14 294.87,-660.00" via=":13_4_0" dir="r" state="M"/>
    <connection from="259" to="240" fromLane="0" toLane="0" contPos="-4.00" shape="291.47,-648.00 293.00,-649.35 294.25,-650.14 295.66,-650.71 297.16,-650.99 298.66,-650.99 300.16,-650.70 302.08,-649.94 303.81,-648.90 305.32,-647.75" via=":13_5_0" dir="s" state="M"/>

    <connection from=":13_0" to="260" fromLane="0" toLane="0" dir="s" state="M"/>
    <connection from=":13_1" to="236" fromLane="0" toLane="0" dir="L" state="M"/>
    <connection from=":13_2" to="240" fromLane="0" toLane="0" dir="s" state="M"/>
    <connection from=":13_3" to="260" fromLane="0" toLane="0" dir="l" state="M"/>
    <connection from=":13_4" to="236" fromLane="0" toLane="0" dir="r" state="M"/>
    <connection from=":13_5" to="240" fromLane="0" toLane="0" dir="s" state="M"/>

</net>