<!-- generated on 2020-12-18 15:58:29.945887 by ipykernel_launcher.py v1_2_0+5214-53edc58fcd
-->
<edges>
	<edge from="1" function="normal" id="3498" length="9.586095898357163" numLanes="1" priority="1" speed="36.11111111111111" spreadType="center" to="2">
		<lane allow="moped bicycle pedestrian custom1 trailer evehicle rail_urban ship private truck vip custom2 authority delivery rail_electric taxi tram army hov coach motorcycle passenger bus rail emergency" index="0" length="9.586095898357163" shape="43.91525,39.9488 34.3345,40.2689" speed="36.11111111111111" width="4.771086938004798"/>
	</edge>
	<edge from="2" function="normal" id="3716" length="18.680147901632267" numLanes="1" priority="1" speed="36.11111111111111" spreadType="center" to="3">
		<lane allow="moped bicycle pedestrian custom1 trailer evehicle rail_urban ship private vip custom2 authority delivery rail_electric taxi tram army hov coach motorcycle passenger rail emergency" index="0" length="18.680147901632267" shape="34.3345,40.2689 30.35065,41.710300000000004 27.49505,44.212950000000006 26.443550000000002,46.603049999999996 25.7409,48.631299999999996 25.8859,51.7763 26.87705,54.33125" speed="36.11111111111111" width="3.353872355949164"/>
	</edge>
	<edge from="4" function="normal" id="3509" length="15.63298084853255" numLanes="3" priority="1" speed="36.11111111111111" spreadType="center" to="5">
		<lane allow="moped bicycle pedestrian custom1 trailer evehicle rail_urban ship private truck vip custom2 authority delivery rail_electric taxi tram army hov coach motorcycle passenger bus rail emergency" index="0" length="15.63298084853255" shape="-66.87780000000001,-25.07055 -62.4816,-27.2514 -52.87115,-32.034949999999995" speed="36.11111111111111" width="3.2317602711216056"/>
		<lane allow="moped bicycle pedestrian custom1 trailer evehicle rail_urban ship private truck vip custom2 authority delivery rail_electric taxi tram army hov coach motorcycle passenger bus rail emergency" index="1" length="15.63298084853255" shape="-65.48825,-22.2695 -61.05085,-24.470799999999997 -51.44035,-29.25435" speed="36.11111111111111" width="3.0217924167619463"/>
		<lane allow="moped bicycle pedestrian custom1 trailer evehicle rail_urban ship private truck vip custom2 authority delivery rail_electric taxi tram army hov coach motorcycle passenger bus rail emergency" index="2" length="15.63298084853255" shape="-64.1371,-19.54585 -59.6445,-21.7745 -50.1336,-26.4951" speed="36.11111111111111" width="3.058956104621315"/>
	</edge>
	<edge from="5" function="normal" id="3672" length="43.42964317851891" numLanes="1" priority="1" speed="36.11111111111111" spreadType="center" to="6">
		<lane allow="moped bicycle pedestrian custom1 trailer evehicle rail_urban ship private vip custom2 authority delivery rail_electric taxi tram army hov coach motorcycle passenger rail emergency" index="0" length="43.42964317851891" shape="-50.1336,-26.4951 -44.9764,-29.035449999999997 -41.3936,-30.51995 -37.54775,-31.878600000000002 -34.76705,-32.8489 -32.2811,-33.345749999999995 -30.04625,-33.55815 -27.71005,-33.44115 -26.06555,-33.30675 -24.9561,-33.0505 -24.016350000000003,-32.4675 -23.097099999999998,-31.1173 -21.9414,-29.18895 -19.27395,-24.951500000000003 -17.700200000000002,-21.899749999999997 -16.228450000000002,-18.7876" speed="36.11111111111111" width="2.91718217634758"/>
	</edge>
	<edge from="6" function="normal" id="3456" length="24.710920579823167" numLanes="3" priority="1" speed="36.11111111111111" spreadType="center" to="7">
		<lane allow="moped bicycle pedestrian custom1 trailer evehicle rail_urban ship private truck vip custom2 authority delivery rail_electric taxi tram army hov coach motorcycle passenger bus rail emergency" index="0" length="24.710920579823167" shape="-10.7018,-21.5473 -7.106,-14.3537 -3.25265,-6.4366 0.10999999999999999,0.6718000000000001" speed="36.11111111111111" width="3.0476685974692197"/>
		<lane allow="moped bicycle pedestrian custom1 trailer evehicle rail_urban ship private truck vip custom2 authority delivery rail_electric taxi tram army hov coach motorcycle passenger bus rail emergency" index="1" length="24.710920579823167" shape="-13.530650000000001,-20.15305 -9.67055,-12.58615 -5.9923,-5.02055 -2.5534499999999998,2.0099" speed="36.11111111111111" width="2.9148241130469605"/>
		<lane allow="moped bicycle pedestrian custom1 trailer evehicle rail_urban ship private truck vip custom2 authority delivery rail_electric taxi tram army hov coach motorcycle passenger bus rail emergency" index="2" length="24.710920579823167" shape="-16.228450000000002,-18.7876 -12.299949999999999,-11.025400000000001 -8.5115,-3.32285 -5.13995,3.32375" speed="36.11111111111111" width="2.8880043801905844"/>
	</edge>
	<edge from="7" function="normal" id="3462" length="8.466645302154802" numLanes="3" priority="1" speed="36.11111111111111" spreadType="center" to="8">
		<lane allow="moped bicycle pedestrian custom1 trailer evehicle rail_urban ship private truck vip custom2 authority delivery rail_electric taxi tram army hov coach motorcycle passenger bus rail emergency" index="0" length="8.466645302154802" shape="0.10999999999999999,0.6718000000000001 3.9893,8.23455" speed="36.11111111111111" width="3.0476685974692197"/>
		<lane allow="moped bicycle pedestrian custom1 trailer evehicle rail_urban ship private truck vip custom2 authority delivery rail_electric taxi tram army hov coach motorcycle passenger bus rail emergency" index="1" length="8.466645302154802" shape="-2.5534499999999998,2.0099 1.26465,9.6196" speed="36.11111111111111" width="2.9148241130469605"/>
		<lane allow="moped bicycle pedestrian custom1 trailer evehicle rail_urban ship private truck vip custom2 authority delivery rail_electric taxi tram army hov coach motorcycle passenger bus rail emergency" index="2" length="8.466645302154802" shape="-5.13995,3.32375 -1.3993,10.91925" speed="36.11111111111111" width="2.8880043801905844"/>
	</edge>
	<edge from="8" function="normal" id="3468" length="22.238196627283088" numLanes="3" priority="1" speed="36.11111111111111" spreadType="center" to="9">
		<lane allow="moped bicycle pedestrian custom1 trailer evehicle rail_urban ship private truck vip custom2 authority delivery rail_electric taxi tram army hov coach motorcycle passenger bus rail emergency" index="0" length="22.238196627283088" shape="3.9893,8.23455 8.588650000000001,17.5261 13.9653,28.2071" speed="36.11111111111111" width="3.032663985673323"/>
		<lane allow="moped bicycle pedestrian custom1 trailer evehicle rail_urban ship private truck vip custom2 authority delivery rail_electric taxi tram army hov coach motorcycle passenger bus rail emergency" index="1" length="22.238196627283088" shape="1.26465,9.6196 5.9109,18.94135 11.162749999999999,29.547150000000002" speed="36.11111111111111" width="2.9980111023810436"/>
		<lane allow="moped bicycle pedestrian custom1 trailer evehicle rail_urban ship private truck vip custom2 authority delivery rail_electric taxi tram army hov coach motorcycle passenger bus rail emergency" index="2" length="22.238196627283088" shape="-1.3993,10.91925 3.21705,20.3183 8.4064,30.87885" speed="36.11111111111111" width="2.9350875710956226"/>
	</edge>
	<edge from="9" function="normal" id="3713" length="29.14281680783745" numLanes="3" priority="1" speed="36.11111111111111" spreadType="center" to="10">
		<lane allow="moped bicycle pedestrian custom1 trailer evehicle rail_urban ship private truck vip custom2 authority delivery rail_electric taxi tram army hov coach motorcycle passenger bus rail emergency" index="0" length="29.14281680783745" shape="13.9653,28.2071 17.88145,36.20025 21.828049999999998,44.1468 25.58415,51.757450000000006 26.7575,54.39" speed="36.11111111111111" width="3.1576335062828296"/>
		<lane allow="moped bicycle pedestrian custom1 trailer evehicle rail_urban ship private truck vip custom2 authority delivery rail_electric taxi tram army hov coach motorcycle passenger rail emergency" index="1" length="29.14281680783745" shape="11.162749999999999,29.547150000000002 14.600249999999999,36.485150000000004 18.54675,44.43175 22.7174,52.929050000000004 24.0024,55.7434" speed="36.11111111111111" width="2.9348672269797813"/>
		<lane allow="moped bicycle pedestrian custom1 trailer evehicle rail_urban ship private truck vip custom2 authority delivery rail_electric taxi tram army hov coach motorcycle passenger bus rail emergency" index="2" length="29.14281680783745" shape="8.4064,30.87885 11.239,36.578900000000004 15.07375,44.2808 19.912300000000002,54.092150000000004 21.298450000000003,57.07165" speed="36.11111111111111" width="3.0673220453679124"/>
	</edge>
	<edge from="5" function="normal" id="3636" length="10.130444963203741" numLanes="2" priority="1" speed="36.11111111111111" spreadType="center" to="11">
		<lane allow="moped bicycle pedestrian custom1 trailer evehicle rail_urban ship private truck vip custom2 authority delivery rail_electric taxi tram army hov coach motorcycle passenger bus rail emergency" index="0" length="10.130444963203741" shape="-52.87115,-32.034949999999995 -43.86005,-36.720299999999995" speed="36.11111111111111" width="3.2321866189934005"/>
		<lane allow="moped bicycle pedestrian custom1 trailer evehicle rail_urban ship private truck vip custom2 authority delivery rail_electric taxi tram army hov coach motorcycle passenger bus rail emergency" index="1" length="10.130444963203741" shape="-51.44035,-29.25435 -42.41565,-33.8566" speed="36.11111111111111" width="3.0254656269738045"/>
	</edge>
	<edge from="11" function="normal" id="3658" length="24.83401336288985" numLanes="2" priority="1" speed="36.11111111111111" spreadType="center" to="12">
		<lane allow="moped bicycle pedestrian custom1 trailer evehicle rail_urban ship private truck vip custom2 authority delivery rail_electric taxi tram army hov coach motorcycle passenger bus rail emergency" index="0" length="24.83401336288985" shape="-43.86005,-36.720299999999995 -40.96425,-38.2262 -38.30875,-39.60695 -35.5918,-41.01965 -32.603500000000004,-42.57355 -29.901850000000003,-43.978449999999995 -27.25715,-45.3536 -24.541600000000003,-46.7656 -21.769849999999998,-48.20685" speed="36.11111111111111" width="3.30890878840744"/>
		<lane allow="moped bicycle pedestrian custom1 trailer evehicle rail_urban ship private truck vip custom2 authority delivery rail_electric taxi tram army hov coach motorcycle passenger bus rail emergency" index="1" length="24.83401336288985" shape="-42.41565,-33.8566 -39.547650000000004,-35.319199999999995 -36.87665,-36.68125 -34.13835,-38.077600000000004 -31.17375,-39.589349999999996 -28.4633,-40.971599999999995 -25.81335,-42.32285 -23.0789,-43.717150000000004 -20.292099999999998,-45.1383" speed="36.11111111111111" width="3.105783426126167"/>
	</edge>
	<edge from="12" function="normal" id="3676" length="16.155928389455163" numLanes="2" priority="1" speed="36.11111111111111" spreadType="center" to="13">
		<lane allow="moped bicycle pedestrian custom1 trailer evehicle rail_urban ship private truck vip custom2 authority delivery rail_electric taxi tram army hov coach motorcycle passenger bus rail emergency" index="0" length="16.155928389455163" shape="-21.769849999999998,-48.20685 -15.750150000000001,-51.2131 -7.3161000000000005,-55.4251" speed="36.11111111111111" width="3.503454903377524"/>
		<lane allow="moped bicycle pedestrian custom1 trailer evehicle rail_urban ship private truck vip custom2 authority delivery rail_electric taxi tram army hov coach motorcycle passenger bus rail emergency" index="1" length="16.155928389455163" shape="-20.292099999999998,-45.1383 -14.26745,-48.123599999999996 -5.77125,-52.3335" speed="36.11111111111111" width="3.30822452684215"/>
	</edge>
	<edge from="13" function="normal" id="3525" length="17.28043527267281" numLanes="3" priority="1" speed="36.11111111111111" spreadType="center" to="14">
		<lane allow="moped bicycle pedestrian custom1 trailer evehicle rail_urban ship private truck vip custom2 authority delivery rail_electric taxi tram army hov coach motorcycle passenger bus rail emergency" index="0" length="17.28043527267281" shape="-8.939150000000001,-58.7532 -0.21185000000000004,-63.048249999999996 6.5764499999999995,-66.38905" speed="36.11111111111111" width="3.8739027478758428"/>
		<lane allow="moped bicycle pedestrian custom1 trailer evehicle rail_urban ship private truck vip custom2 authority delivery rail_electric taxi tram army hov coach motorcycle passenger bus rail emergency" index="1" length="17.28043527267281" shape="-7.3161000000000005,-55.4251 1.41105,-59.71865 8.2103,-63.0637" speed="36.11111111111111" width="3.5117895381130064"/>
		<lane allow="moped bicycle pedestrian custom1 trailer evehicle rail_urban ship private truck vip custom2 authority delivery rail_electric taxi tram army hov coach motorcycle passenger bus rail emergency" index="2" length="17.28043527267281" shape="-5.77125,-52.3335 2.90755,-56.6021 9.7351,-59.9602" speed="36.11111111111111" width="3.3794967495175907"/>
	</edge>
	<edge from="5" function="normal" id="3600" length="24.197467511365538" numLanes="1" priority="1" speed="36.11111111111111" spreadType="center" to="15">
		<lane allow="moped bicycle pedestrian custom1 trailer evehicle rail_urban ship private vip custom2 authority delivery rail_electric taxi tram army hov coach motorcycle passenger rail emergency" index="0" length="24.197467511365538" shape="-52.87115,-32.034949999999995 -48.38285,-34.4299 -46.389849999999996,-35.620000000000005 -44.7868,-36.5306 -44.0437,-37.010549999999995 -43.619600000000005,-37.59815 -43.5838,-38.405100000000004 -43.991,-39.8167 -44.7919,-41.78285 -45.77235,-43.8812 -48.56525,-49.88315" speed="36.11111111111111" width="3.2321866189934005"/>
	</edge>
	<edge from="15" function="normal" id="3542" length="74.2461753523541" numLanes="3" priority="1" speed="36.11111111111111" spreadType="center" to="16">
		<lane allow="moped bicycle pedestrian custom1 trailer evehicle rail_urban ship private truck vip custom2 authority delivery rail_electric taxi tram army hov coach motorcycle passenger bus rail emergency" index="0" length="74.2461753523541" shape="-48.56525,-49.88315 -52.72655,-58.421850000000006 -56.779799999999994,-67.35185 -60.55185,-76.07035 -64.17660000000001,-85.3143 -67.8916,-94.37215 -71.57525,-103.39975 -75.2593,-112.4582 -77.54635,-118.2542" speed="36.11111111111111" width="2.8235974571457545"/>
		<lane allow="moped bicycle pedestrian custom1 trailer evehicle rail_urban ship private truck vip custom2 authority delivery rail_electric taxi tram army hov coach motorcycle passenger bus rail emergency" index="1" length="74.2461753523541" shape="-45.721599999999995,-51.3758 -49.965,-59.9306 -54.04715,-68.714 -57.7878,-77.4022 -61.4418,-86.52250000000001 -65.0949,-95.58135 -68.74635,-104.517 -72.33765,-113.57679999999999 -74.72890000000001,-119.7005" speed="36.11111111111111" width="2.969358961122759"/>
		<lane allow="moped bicycle pedestrian custom1 trailer evehicle rail_urban ship private truck vip custom2 authority delivery rail_electric taxi tram army hov coach motorcycle passenger bus rail emergency" index="2" length="74.2461753523541" shape="-43.07355,-52.76575 -47.296350000000004,-61.4457 -51.3467,-70.168 -55.11825,-78.85579999999999 -58.6131,-87.65514999999999 -62.2686,-96.88325 -65.92045,-105.84975 -69.38725,-114.84965 -71.89840000000001,-121.15355" speed="36.11111111111111" width="2.9622015478356603"/>
	</edge>
	<edge from="17" function="normal" id="3532" length="13.634900230131372" numLanes="2" priority="1" speed="36.11111111111111" spreadType="center" to="18">
		<lane allow="moped bicycle pedestrian custom1 trailer evehicle rail_urban ship private truck vip custom2 authority delivery rail_electric taxi tram army hov coach motorcycle passenger bus rail emergency" index="0" length="13.634900230131372" shape="14.2808,-50.708349999999996 7.34815,-47.3195 2.00375,-44.70695" speed="36.11111111111111" width="3.607231317783766"/>
		<lane allow="moped bicycle pedestrian custom1 trailer evehicle rail_urban ship private truck vip custom2 authority delivery rail_electric taxi tram army hov coach motorcycle passenger bus rail emergency" index="1" length="13.634900230131372" shape="12.67615,-53.9743 5.81765,-50.6211 0.42680000000000007,-47.98565" speed="36.11111111111111" width="3.623546501702443"/>
	</edge>
	<edge from="18" function="normal" id="3534" length="6.575577396130318" numLanes="3" priority="1" speed="36.11111111111111" spreadType="center" to="19">
		<lane allow="moped bicycle pedestrian custom1 trailer evehicle rail_urban ship private truck vip custom2 authority delivery rail_electric taxi tram army hov coach motorcycle passenger bus rail emergency" index="0" length="6.575577396130318" shape="2.00375,-44.70695 -2.4191000000000003,-38.685100000000006" speed="36.11111111111111" width="3.2457372413675163"/>
		<lane allow="moped bicycle pedestrian custom1 trailer evehicle rail_urban ship private truck vip custom2 authority delivery rail_electric taxi tram army hov coach motorcycle passenger bus rail emergency" index="1" length="6.575577396130318" shape="2.00375,-44.70695 -3.90825,-41.76695" speed="36.11111111111111" width="3.602433613545151"/>
		<lane allow="moped bicycle pedestrian custom1 trailer evehicle rail_urban ship private truck vip custom2 authority delivery rail_electric taxi tram army hov coach motorcycle passenger bus rail emergency" index="2" length="6.575577396130318" shape="0.42680000000000007,-47.98565 -5.46125,-45.058350000000004" speed="36.11111111111111" width="3.671307975367907"/>
	</edge>
	<edge from="19" function="normal" id="3536" length="6.608363657139339" numLanes="3" priority="1" speed="36.11111111111111" spreadType="center" to="20">
		<lane allow="moped bicycle pedestrian custom1 trailer evehicle rail_urban ship private truck vip custom2 authority delivery rail_electric taxi tram army hov coach motorcycle passenger bus rail emergency" index="0" length="6.608363657139339" shape="-2.4191000000000003,-38.685100000000006 -8.39865,-35.795649999999995" speed="36.11111111111111" width="3.190167196245363"/>
		<lane allow="moped bicycle pedestrian custom1 trailer evehicle rail_urban ship private truck vip custom2 authority delivery rail_electric taxi tram army hov coach motorcycle passenger bus rail emergency" index="1" length="6.608363657139339" shape="-3.90825,-41.76695 -9.8484,-38.822199999999995" speed="36.11111111111111" width="3.5215687697388507"/>
		<lane allow="moped bicycle pedestrian custom1 trailer evehicle rail_urban ship private truck vip custom2 authority delivery rail_electric taxi tram army hov coach motorcycle passenger bus rail emergency" index="2" length="6.608363657139339" shape="-5.46125,-45.058350000000004 -11.3713,-42.1017" speed="36.11111111111111" width="3.6773714878973025"/>
	</edge>
	<edge from="20" function="normal" id="3620" length="6.6693974135599365" numLanes="2" priority="1" speed="36.11111111111111" spreadType="center" to="21">
		<lane allow="moped bicycle pedestrian custom1 trailer evehicle rail_urban ship private truck vip custom2 authority delivery rail_electric taxi tram army hov coach motorcycle passenger bus rail emergency" index="0" length="6.6693974135599365" shape="-9.8484,-38.822199999999995 -15.8259,-35.8641" speed="36.11111111111111" width="3.4558219456447747"/>
		<lane allow="moped bicycle pedestrian custom1 trailer evehicle rail_urban ship private truck vip custom2 authority delivery rail_electric taxi tram army hov coach motorcycle passenger bus rail emergency" index="1" length="6.6693974135599365" shape="-11.3713,-42.1017 -17.37875,-39.0886" speed="36.11111111111111" width="3.702039012490278"/>
	</edge>
	<edge from="21" function="normal" id="3662" length="24.644895567956993" numLanes="2" priority="1" speed="36.11111111111111" spreadType="center" to="22">
		<lane allow="moped bicycle pedestrian custom1 trailer evehicle rail_urban ship private truck vip custom2 authority delivery rail_electric taxi tram army hov coach motorcycle passenger bus rail emergency" index="0" length="24.644895567956993" shape="-15.8259,-35.8641 -18.64245,-34.47025 -21.419249999999998,-33.0961 -24.068649999999998,-31.7849 -26.79075,-30.43775 -29.66245,-29.01655 -32.45125,-27.636400000000002 -35.1533,-26.2992 -37.9139,-24.9329" speed="36.11111111111111" width="3.2133408160355486"/>
		<lane allow="moped bicycle pedestrian custom1 trailer evehicle rail_urban ship private truck vip custom2 authority delivery rail_electric taxi tram army hov coach motorcycle passenger bus rail emergency" index="1" length="24.644895567956993" shape="-17.37875,-39.0886 -20.18325,-37.6819 -22.943800000000003,-36.29805 -25.59185,-34.9694 -28.30855,-33.60795 -31.21035,-32.15035 -33.9791,-30.76025 -36.66895,-29.411050000000003 -39.465500000000006,-28.008000000000003" speed="36.11111111111111" width="3.6754043750314067"/>
	</edge>
	<edge from="22" function="normal" id="3640" length="10.509859510002974" numLanes="2" priority="1" speed="36.11111111111111" spreadType="center" to="23">
		<lane allow="moped bicycle pedestrian custom1 trailer evehicle rail_urban ship private truck vip custom2 authority delivery rail_electric taxi tram army hov coach motorcycle passenger bus rail emergency" index="0" length="10.509859510002974" shape="-37.9139,-24.9329 -47.7474,-20.1115" speed="36.11111111111111" width="3.1673785817296913"/>
		<lane allow="moped bicycle pedestrian custom1 trailer evehicle rail_urban ship private truck vip custom2 authority delivery rail_electric taxi tram army hov coach motorcycle passenger bus rail emergency" index="1" length="10.509859510002974" shape="-39.465500000000006,-28.008000000000003 -48.8831,-23.342599999999997" speed="36.11111111111111" width="3.6754043750314067"/>
	</edge>
	<edge from="23" function="normal" id="3517" length="14.496753904957323" numLanes="3" priority="1" speed="36.11111111111111" spreadType="center" to="24">
		<lane allow="moped bicycle pedestrian custom1 trailer evehicle rail_urban ship private truck vip custom2 authority delivery rail_electric taxi tram army hov coach motorcycle passenger bus rail emergency" index="0" length="14.496753904957323" shape="-46.030100000000004,-15.65755 -55.2436,-11.21815 -58.99209999999999,-9.1743" speed="36.11111111111111" width="5.130906839926057"/>
		<lane allow="moped bicycle pedestrian custom1 trailer evehicle rail_urban ship private truck vip custom2 authority delivery rail_electric taxi tram army hov coach motorcycle passenger bus rail emergency" index="1" length="14.496753904957323" shape="-47.7474,-20.1115 -57.13785,-15.06945 -60.82335,-12.86575" speed="36.11111111111111" width="3.110520139783699"/>
		<lane allow="moped bicycle pedestrian custom1 trailer evehicle rail_urban ship private truck vip custom2 authority delivery rail_electric taxi tram army hov coach motorcycle passenger bus rail emergency" index="2" length="14.496753904957323" shape="-48.8831,-23.342599999999997 -58.6648,-18.094949999999997 -62.3302,-15.9033" speed="36.11111111111111" width="3.664585112942528"/>
	</edge>
	<edge from="20" function="normal" id="3668" length="38.24329000786904" numLanes="1" priority="1" speed="36.11111111111111" spreadType="center" to="15">
		<lane allow="moped bicycle pedestrian custom1 trailer evehicle rail_urban ship private vip custom2 authority delivery rail_electric taxi tram army hov coach motorcycle passenger rail emergency" index="0" length="38.24329000786904" shape="-11.3713,-42.1017 -14.70835,-40.992999999999995 -17.6425,-40.18615 -20.13815,-39.43855 -22.5535,-39.135 -24.75535,-39.05005 -26.29155,-39.178399999999996 -28.2618,-39.3852 -29.8659,-39.662549999999996 -31.8137,-39.975899999999996 -33.6224,-40.7329 -35.1583,-41.983000000000004 -36.59795,-43.8926 -39.298249999999996,-47.570350000000005 -43.07355,-52.76575" speed="36.11111111111111" width="3.0119886487169865"/>
	</edge>
	<edge from="20" function="normal" id="3602" length="16.40731935125664" numLanes="1" priority="1" speed="36.11111111111111" spreadType="center" to="6">
		<lane allow="moped bicycle pedestrian custom1 trailer evehicle rail_urban ship private vip custom2 authority delivery rail_electric taxi tram army hov coach motorcycle passenger rail emergency" index="0" length="16.40731935125664" shape="-8.39865,-35.795649999999995 -10.251249999999999,-34.5115 -11.4013,-33.294799999999995 -12.329,-31.665799999999997 -12.90645,-29.857100000000003 -12.96435,-28.486649999999997 -12.6019,-26.3604 -11.7508,-23.98515 -10.7018,-21.5473" speed="36.11111111111111" width="2.9347200002725984"/>
	</edge>
	<edge from="9" function="normal" id="3718" length="22.831237741532025" numLanes="1" priority="1" speed="36.11111111111111" spreadType="center" to="25">
		<lane allow="moped bicycle pedestrian custom1 trailer evehicle rail_urban ship private vip custom2 authority delivery rail_electric taxi tram army hov coach motorcycle passenger rail emergency" index="0" length="22.831237741532025" shape="13.9653,28.2071 16.587,31.5788 18.65175,33.494 21.24555,34.667699999999996 25.87385,35.071600000000004 34.1238,35.20885" speed="36.11111111111111" width="3.1576335062828296"/>
	</edge>
	<edge from="25" function="normal" id="3500" length="9.586145870473697" numLanes="1" priority="1" speed="36.11111111111111" spreadType="center" to="26">
		<lane allow="moped bicycle pedestrian custom1 trailer evehicle rail_urban ship private truck vip custom2 authority delivery rail_electric taxi tram army hov coach motorcycle passenger bus rail emergency" index="0" length="9.586145870473697" shape="34.1238,35.20885 43.7046,34.88875" speed="36.11111111111111" width="5.358070392408074"/>
	</edge>
	<edge from="27" function="normal" id="3555" length="8.747302513489522" numLanes="4" priority="1" speed="36.11111111111111" spreadType="center" to="28">
		<lane allow="moped bicycle pedestrian custom1 trailer evehicle rail_urban ship private truck vip custom2 authority delivery rail_electric taxi tram army hov coach motorcycle passenger bus rail emergency" index="0" length="8.747302513489522" shape="-59.2269,-127.6585 -55.2507,-119.86715" speed="36.11111111111111" width="3.5111446353005746"/>
		<lane allow="moped bicycle pedestrian custom1 trailer evehicle rail_urban ship private truck vip custom2 authority delivery rail_electric taxi tram army hov coach motorcycle passenger bus rail emergency" index="1" length="8.747302513489522" shape="-62.1707,-126.1473 -58.140299999999996,-118.26535" speed="36.11111111111111" width="2.9942633818687394"/>
		<lane allow="moped bicycle pedestrian custom1 trailer evehicle rail_urban ship private truck vip custom2 authority delivery rail_electric taxi tram army hov coach motorcycle passenger bus rail emergency" index="2" length="8.747302513489522" shape="-64.8702,-124.76155 -60.782,-116.7282" speed="36.11111111111111" width="3.012211639310895"/>
		<lane allow="moped bicycle pedestrian custom1 trailer evehicle rail_urban ship private truck vip custom2 authority delivery rail_electric taxi tram army hov coach motorcycle passenger bus rail emergency" index="3" length="8.747302513489522" shape="-67.64814999999999,-123.33545000000001 -63.467200000000005,-115.2898" speed="36.11111111111111" width="3.0805742451692346"/>
	</edge>
	<edge from="28" function="normal" id="3559" length="17.69293538209547" numLanes="5" priority="1" speed="36.11111111111111" spreadType="center" to="29">
		<lane allow="moped bicycle pedestrian custom1 trailer evehicle rail_urban ship private truck vip custom2 authority delivery rail_electric taxi tram army hov coach motorcycle passenger bus rail emergency" index="0" length="17.69293538209547" shape="-55.2507,-119.86715 -51.905,-112.8995 -47.39595,-103.82069999999999" speed="36.11111111111111" width="3.5111446353005746"/>
		<lane allow="moped bicycle pedestrian custom1 trailer evehicle rail_urban ship private truck vip custom2 authority delivery rail_electric taxi tram army hov coach motorcycle passenger bus rail emergency" index="1" length="17.69293538209547" shape="-58.140299999999996,-118.26535 -54.7455,-111.34020000000001 -50.185199999999995,-102.22964999999999" speed="36.11111111111111" width="2.8911201583469266"/>
		<lane allow="moped bicycle pedestrian custom1 trailer evehicle rail_urban ship private truck vip custom2 authority delivery rail_electric taxi tram army hov coach motorcycle passenger bus rail emergency" index="2" length="17.69293538209547" shape="-60.782,-116.7282 -57.435500000000005,-109.94085000000001 -52.8752,-100.83035000000001" speed="36.11111111111111" width="3.012211639310895"/>
		<lane allow="moped bicycle pedestrian custom1 trailer evehicle rail_urban ship private truck vip custom2 authority delivery rail_electric taxi tram army hov coach motorcycle passenger bus rail emergency" index="3" length="17.69293538209547" shape="-63.467200000000005,-115.2898 -60.10635,-108.57965 -55.54600000000001,-99.4691" speed="36.11111111111111" width="2.8198292501497306"/>
		<lane allow="moped bicycle pedestrian custom1 trailer evehicle rail_urban ship private truck vip custom2 authority delivery rail_electric taxi tram army hov coach motorcycle passenger rail emergency" index="4" length="17.69293538209547" shape="-63.467200000000005,-115.2898 -61.634600000000006,-107.55465000000001 -58.15375,-98.01635" speed="36.11111111111111" width="2.9068515975192115"/>
	</edge>
	<edge from="29" function="normal" id="3568" length="47.08668512312134" numLanes="5" priority="1" speed="36.11111111111111" spreadType="center" to="30">
		<lane allow="moped bicycle pedestrian custom1 trailer evehicle rail_urban ship private truck vip custom2 authority delivery rail_electric taxi tram army hov coach motorcycle passenger bus rail emergency" index="0" length="47.08668512312134" shape="-47.39595,-103.82069999999999 -43.19695,-95.3657 -38.9393,-86.79114999999999 -34.50085,-77.85515000000001 -30.20225,-69.3942 -26.016750000000002,-61.7451" speed="36.11111111111111" width="3.3461488699697766"/>