<!-- generated on 2020-12-18 15:58:30.054292 by ipykernel_launcher.py v1_2_0+5214-53edc58fcd
-->
<nodes>
	<node id="1" type="from" x="43.91525" y="39.9488"/>
	<node id="2" type="to" x="34.3345" y="40.2689"/>
	<node id="3" type="to" x="26.87705" y="54.33125"/>
	<node id="4" type="from" x="-65.50105" y="-22.2953"/>
	<node id="5" type="to" x="-51.4817" y="-29.261466666666667"/>
	<node id="6" type="to" x="-16.228450000000002" y="-18.7876"/>
	<node id="7" type="to" x="-2.5277999999999996" y="2.0018166666666666"/>
	<node id="8" type="to" x="1.2848833333333332" y="9.591133333333334"/>
	<node id="9" type="to" x="11.17815" y="29.544366666666665"/>
	<node id="10" type="to" x="24.019450000000003" y="55.73501666666667"/>
	<node id="11" type="to" x="-43.13785" y="-35.28845"/>
	<node id="12" type="to" x="-21.030974999999998" y="-46.672575"/>
	<node id="13" type="to" x="-6.543675" y="-53.8793"/>
	<node id="14" type="to" x="8.17395" y="-63.13764999999999"/>
	<node id="15" type="to" x="-48.56525" y="-49.88315"/>
	<node id="16" type="to" x="-74.72455000000001" y="-119.70275"/>
	<node id="17" type="from" x="13.478475" y="-52.341325"/>
	<node id="18" type="to" x="1.215275" y="-46.3463"/>
	<node id="19" type="to" x="-3.929533333333333" y="-41.836800000000004"/>
	<node id="20" type="to" x="-9.872783333333333" y="-38.90651666666667"/>
	<node id="21" type="to" x="-16.602325" y="-37.47635"/>
	<node id="22" type="to" x="-38.6897" y="-26.47045"/>
	<node id="23" type="to" x="-48.31525" y="-21.72705"/>
	<node id="24" type="to" x="-60.71521666666666" y="-12.647783333333335"/>
	<node id="25" type="to" x="34.1238" y="35.20885"/>
	<node id="26" type="to" x="43.7046" y="34.88875"/>
	<node id="27" type="from" x="-63.478987499999995" y="-125.47570000000002"/>
	<node id="28" type="to" x="-59.41005" y="-117.537625"/>
	<node id="29" type="to" x="-52.831219999999995" y="-100.87322999999999"/>
	<node id="30" type="to" x="-31.776400000000002" y="-58.70846"/>
	<node id="31" type="to" x="-26.62691666666667" y="-47.63453333333334"/>
	<node id="32" type="to" x="-19.266900000000003" y="-32.25903333333333"/>
	<node id="33" type="from" x="13.144060000000001" y="61.077279999999995"/>
	<node id="34" type="to" x="0.18542000000000006" y="34.70236"/>
	<node id="35" type="to" x="-9.57615" y="15.025360000000001"/>
	<node id="36" type="to" x="-14.750308333333331" y="8.109783333333334"/>
	<node id="37" type="to" x="-25.746525000000002" y="-13.986191666666668"/>
	<node id="38" type="to" x="-33.078599999999994" y="-25.508133333333337"/>
	<node id="39" type="to" x="-40.4049" y="-40.402316666666664"/>
</nodes>
