<routes>
	<vehicle depart="0.1" departLane="4" departPos="0" departSpeed="0.0" id="21065" type="passenger">
		<route edges="3438 3450 3664 3525"/>
	</vehicle>
	<vehicle depart="0.1" departLane="4" departPos="24.189054305629572" departSpeed="0.0" id="21079" type="passenger">
		<route edges="3450 3664 3525"/>
	</vehicle>
	<vehicle depart="0.1" departLane="4" departPos="17.03288199347387" departSpeed="0.097536" id="21080" type="passenger">
		<route edges="3450 3664 3525"/>
	</vehicle>
	<vehicle depart="0.1" departLane="4" departPos="0" departSpeed="0.0" id="21085" type="passenger">
		<route edges="3450 3664 3525"/>
	</vehicle>
	<vehicle depart="0.1" departLane="4" departPos="8.493302885950788" departSpeed="0.0" id="21089" type="passenger">
		<route edges="3438 3450 3664 3525"/>
	</vehicle>
	<vehicle depart="0.1" departLane="5" departPos="22.251748033732156" departSpeed="0.0" id="21103" type="passenger">
		<route edges="3450 3664 3525"/>
	</vehicle>
	<vehicle depart="0.1" departLane="0" departPos="8.64371086171089" departSpeed="0.92964" id="21105" type="passenger">
		<route edges="3718 3500"/>
	</vehicle>
	<vehicle depart="0.1" departLane="3" departPos="15.875146713233002" departSpeed="0.0" id="21112" type="passenger">
		<route edges="3426 3438 3450 3664 3525"/>
	</vehicle>
	<vehicle depart="0.1" departLane="0" departPos="8.499656231430777" departSpeed="0.0" id="21116" type="passenger">
		<route edges="3462 3468 3713"/>
	</vehicle>
	<vehicle depart="0.1" departLane="0" departPos="16.391659709079445" departSpeed="0.0" id="21128" type="passenger">
		<route edges="3456 3462 3468 3713"/>
	</vehicle>
	<vehicle depart="0.1" departLane="3" departPos="0" departSpeed="0.0" id="21132" type="passenger">
		<route edges="3426 3438 3450 3664 3525"/>
	</vehicle>
	<vehicle depart="0.1" departLane="0" departPos="0" departSpeed="0.0" id="21136" type="passenger">
		<route edges="3456 3462 3468 3713"/>
	</vehicle>
	<vehicle depart="0.1" departLane="0" departPos="0" departSpeed="0.051816" id="21137" type="passenger">
		<route edges="3456 3462 3468 3713"/>
	</vehicle>
	<vehicle depart="0.1" departLane="1" departPos="0" departSpeed="9.1105" id="21155" type="passenger">
		<route edges="3468 3713"/>
	</vehicle>
	<vehicle depart="0.1" departLane="1" departPos="16.602959725138444" departSpeed="8.8788" id="21158" type="passenger">
		<route edges="3456 3462 3468 3713"/>
	</vehicle>
	<vehicle depart="0.1" departLane="0" departPos="0" departSpeed="11.9512" id="21164" type="passenger">
		<route edges="3632 3652 3616 3456 3462 3468 3713"/>
	</vehicle>
	<vehicle depart="0.1" departLane="5" departPos="16.135910064177676" departSpeed="0.0" id="21174" type="passenger">
		<route edges="3450 3664 3525"/>
	</vehicle>
	<vehicle depart="0.1" departLane="3" departPos="0" departSpeed="0.81077" id="21178" type="passenger">
		<route edges="3426 3438 3450 3664 3525"/>
	</vehicle>
	<vehicle depart="0.1" departLane="3" departPos="29.4552650303517" departSpeed="0.0" id="21181" type="passenger">
		<route edges="3705 3426 3438 3450 3664 3525"/>
	</vehicle>
	<vehicle depart="0.1" departLane="1" departPos="6.630002608219701" departSpeed="0.0" id="21182" type="passenger">
		<route edges="3536 3620 3662 3640 3517"/>
	</vehicle>
	<vehicle depart="0.1" departLane="0" departPos="8.092886312916601" departSpeed="2.0056" id="21183" type="passenger">
		<route edges="3616 3602 3616 3456 3462 3468 3713"/>
	</vehicle>
	<vehicle depart="0.1" departLane="3" departPos="19.240296167403713" departSpeed="0.0" id="21187" type="passenger">
		<route edges="3705 3426 3438 3450 3664 3525"/>
	</vehicle>
	<vehicle depart="0.1" departLane="1" departPos="0" departSpeed="14.9657" id="21188" type="passenger">
		<route edges="3616 3456 3462 3468 3713"/>
	</vehicle>
	<vehicle depart="0.1" departLane="5" departPos="0" departSpeed="0.0" id="21190" type="passenger">
		<route edges="3450 3664 3525"/>
	</vehicle>
	<vehicle depart="0.1" departLane="4" departPos="0" departSpeed="0.0" id="21197" type="passenger">
		<route edges="3450 3664 3525"/>
	</vehicle>
	<vehicle depart="0.1" departLane="5" departPos="8.43889335532213" departSpeed="0.0" id="21198" type="passenger">
		<route edges="3438 3450 3664 3525"/>
	</vehicle>
	<vehicle depart="0.1" departLane="0" departPos="0" departSpeed="0.0" id="21202" type="passenger">
		<route edges="3668 3620 3668 3542"/>
	</vehicle>
	<vehicle depart="0.1" departLane="5" departPos="0" departSpeed="0.0" id="21204" type="passenger">
		<route edges="3438 3450 3664 3525"/>
	</vehicle>
	<vehicle depart="0.1" departLane="3" departPos="0" departSpeed="0.0" id="21207" type="passenger">
		<route edges="3705 3426 3438 3450 3664 3525"/>
	</vehicle>
	<vehicle depart="0.1" departLane="2" departPos="33.91904195465251" departSpeed="8.9916" id="21211" type="passenger">
		<route edges="3542"/>
	</vehicle>
	<vehicle depart="0.1" departLane="4" departPos="0" departSpeed="0.0" id="21214" type="passenger">
		<route edges="3705 3426 3438 3450 3664 3525"/>
	</vehicle>
	<vehicle depart="0.1" departLane="3" departPos="0" departSpeed="0.0" id="21221" type="passenger">
		<route edges="3705 3426 3438 3450 3664 3525"/>
	</vehicle>
	<vehicle depart="0.1" departLane="2" departPos="0" departSpeed="14.225" id="21223" type="passenger">
		<route edges="3646 3626 3542"/>
	</vehicle>
	<vehicle depart="0.1" departLane="3" departPos="0" departSpeed="12.2895" id="21226" type="passenger">
		<route edges="3450 3610 3646 3626 3542"/>
	</vehicle>
	<vehicle depart="0.1" departLane="1" departPos="65.79009663111603" departSpeed="7.0074" id="21228" type="passenger">
		<route edges="3542"/>
	</vehicle>
	<vehicle depart="0.1" departLane="0" departPos="0" departSpeed="0.0" id="21229" type="passenger">
		<route edges="3670 3640 3517"/>
	</vehicle>
	<vehicle depart="0.1" departLane="0" departPos="74.28443874208685" departSpeed="3.3162" id="21233" type="passenger">
		<route edges="3542"/>
	</vehicle>
	<vehicle depart="0.1" departLane="1" departPos="0" departSpeed="15.0754" id="21238" type="passenger">
		<route edges="3426 3438 3450 3610 3646 3626 3542"/>
	</vehicle>
	<vehicle depart="0.1" departLane="4" departPos="0" departSpeed="0.0" id="21239" type="passenger">
		<route edges="3705 3426 3438 3450 3664 3525"/>
	</vehicle>
	<vehicle depart="0.1" departLane="2" departPos="74.2461753523541" departSpeed="5.3462" id="21240" type="passenger">
		<route edges="3542"/>
	</vehicle>
	<vehicle depart="0.1" departLane="1" departPos="28.76819525618879" departSpeed="9.3421" id="21241" type="passenger">
		<route edges="3542"/>
	</vehicle>
	<vehicle depart="0.1" departLane="1" departPos="40.230557156395555" departSpeed="9.1775" id="21243" type="passenger">
		<route edges="3542"/>
	</vehicle>
	<vehicle depart="0.1" departLane="2" departPos="20.78622142392851" departSpeed="15.0937" id="21246" type="passenger">
		<route edges="3450 3610 3646 3626 3542"/>
	</vehicle>
	<vehicle depart="0.1" departLane="1" departPos="0" departSpeed="12.2438" id="21247" type="passenger">
		<route edges="3542 3542"/>
	</vehicle>
	<vehicle depart="0.1" departLane="1" departPos="0" departSpeed="13.8958" id="21248" type="passenger">
		<route edges="3646 3626 3542"/>
	</vehicle>
	<vehicle depart="0.1" departLane="0" departPos="57.53359242100485" departSpeed="4.13" id="21251" type="passenger">
		<route edges="3542"/>
	</vehicle>
	<vehicle depart="0.1" departLane="0" departPos="37.08148673981875" departSpeed="9.2141" id="21253" type="passenger">
		<route edges="3542"/>
	</vehicle>
	<vehicle depart="0.1" departLane="2" departPos="0" departSpeed="14.1915" id="21254" type="passenger">
		<route edges="3713"/>
	</vehicle>
	<vehicle depart="0.1" departLane="0" departPos="20.34892354304216" departSpeed="11.8354" id="21255" type="passenger">
		<route edges="3542"/>
	</vehicle>
	<vehicle depart="0.1" departLane="2" departPos="8.00234144319041" departSpeed="11.5489" id="21260" type="passenger">
		<route edges="3652 3616 3672 3616 3456 3462 3468 3713"/>
	</vehicle>
	<vehicle depart="0.1" departLane="1" departPos="0" departSpeed="9.8024" id="21261" type="passenger">
		<route edges="3568 3680 3525"/>
	</vehicle>
	<vehicle depart="0.1" departLane="2" departPos="0" departSpeed="11.7135" id="21263" type="passenger">
		<route edges="3568 3568 3632 3652 3616 3456 3462 3468 3713"/>
	</vehicle>
	<vehicle depart="0.1" departLane="1" departPos="6.018165849928912" departSpeed="7.5926" id="21265" type="passenger">
		<route edges="3555 3559 3568 3680 3525"/>
	</vehicle>
</routes>
