<!-- generated on 2020-12-18 15:56:47.392801 by ipykernel_launcher.py v1_2_0+5214-53edc58fcd
-->
<connections>
	<connection contPos="-4.0" from="43343" fromLane="2" keepClear="true" to="43594" toLane="2"/>
	<connection contPos="-4.0" from="43594" fromLane="2" keepClear="true" to="43652" toLane="0"/>
	<connection contPos="-4.0" from="43652" fromLane="0" keepClear="true" to="43602" toLane="1"/>
	<connection contPos="-4.0" from="43602" fromLane="1" keepClear="true" to="43488" toLane="1"/>
	<connection contPos="-4.0" from="43343" fromLane="1" keepClear="true" to="43594" toLane="1"/>
	<connection contPos="-4.0" from="43594" fromLane="1" keepClear="true" to="43632" toLane="1"/>
	<connection contPos="-4.0" from="43632" fromLane="1" keepClear="true" to="43832" toLane="1"/>
	<connection contPos="-4.0" from="43832" fromLane="1" keepClear="true" to="43382" toLane="1"/>
	<connection contPos="-4.0" from="43382" fromLane="1" keepClear="true" to="43386" toLane="1"/>
	<connection contPos="-4.0" from="43386" fromLane="1" keepClear="true" to="43390" toLane="1"/>
	<connection contPos="-4.0" from="43343" fromLane="0" keepClear="true" to="43640" toLane="0"/>
	<connection contPos="-4.0" from="43343" fromLane="0" keepClear="true" to="43594" toLane="0"/>
	<connection contPos="-4.0" from="43594" fromLane="0" keepClear="true" to="43632" toLane="0"/>
	<connection contPos="-4.0" from="43632" fromLane="0" keepClear="true" to="43832" toLane="0"/>
	<connection contPos="-4.0" from="43832" fromLane="0" keepClear="true" to="43382" toLane="0"/>
	<connection contPos="-4.0" from="43382" fromLane="0" keepClear="true" to="43386" toLane="0"/>
	<connection contPos="-4.0" from="43386" fromLane="0" keepClear="true" to="43390" toLane="0"/>
	<connection contPos="-4.0" from="43640" fromLane="0" keepClear="true" to="43476" toLane="0"/>
	<connection contPos="-4.0" from="43476" fromLane="0" keepClear="true" to="43480" toLane="0"/>
	<connection contPos="-4.0" from="43480" fromLane="0" keepClear="true" to="43484" toLane="0"/>
	<connection contPos="-4.0" from="43394" fromLane="1" keepClear="true" to="43400" toLane="1"/>
	<connection contPos="-4.0" from="43394" fromLane="1" keepClear="true" to="43400" toLane="2"/>
	<connection contPos="-4.0" from="43400" fromLane="2" keepClear="true" to="43406" toLane="2"/>
	<connection contPos="-4.0" from="43406" fromLane="2" keepClear="true" to="43838" toLane="2"/>
	<connection contPos="-4.0" from="43838" fromLane="2" keepClear="true" to="43648" toLane="0"/>
	<connection contPos="-4.0" from="43838" fromLane="2" keepClear="true" to="43638" toLane="2"/>
	<connection contPos="-4.0" from="43648" fromLane="0" keepClear="true" to="43618" toLane="1"/>
	<connection contPos="-4.0" from="43618" fromLane="1" keepClear="true" to="43476" toLane="1"/>
	<connection contPos="-4.0" from="43476" fromLane="1" keepClear="true" to="43480" toLane="1"/>
	<connection contPos="-4.0" from="43480" fromLane="1" keepClear="true" to="43484" toLane="1"/>
	<connection contPos="-4.0" from="43400" fromLane="1" keepClear="true" to="43406" toLane="1"/>
	<connection contPos="-4.0" from="43406" fromLane="1" keepClear="true" to="43838" toLane="1"/>
	<connection contPos="-4.0" from="43838" fromLane="1" keepClear="true" to="43638" toLane="1"/>
	<connection contPos="-4.0" from="43638" fromLane="1" keepClear="true" to="43598" toLane="1"/>
	<connection contPos="-4.0" from="43598" fromLane="1" keepClear="true" to="43205" toLane="1"/>
	<connection contPos="-4.0" from="43394" fromLane="0" keepClear="true" to="43400" toLane="0"/>
	<connection contPos="-4.0" from="43400" fromLane="0" keepClear="true" to="43406" toLane="0"/>
	<connection contPos="-4.0" from="43406" fromLane="0" keepClear="true" to="43838" toLane="0"/>
	<connection contPos="-4.0" from="43406" fromLane="0" keepClear="true" to="43646" toLane="0"/>
	<connection contPos="-4.0" from="43646" fromLane="0" keepClear="true" to="43488" toLane="0"/>
	<connection contPos="-4.0" from="43838" fromLane="0" keepClear="true" to="43638" toLane="0"/>
	<connection contPos="-4.0" from="43638" fromLane="0" keepClear="true" to="43598" toLane="0"/>
	<connection contPos="-4.0" from="43598" fromLane="0" keepClear="true" to="43205" toLane="0"/>
	<connection contPos="-4.0" from="43456" fromLane="2" keepClear="true" to="43464" toLane="3"/>
	<connection contPos="-4.0" from="43464" fromLane="3" keepClear="true" to="43472" toLane="3"/>
	<connection contPos="-4.0" from="43472" fromLane="3" keepClear="true" to="43614" toLane="2"/>
	<connection contPos="-4.0" from="43614" fromLane="2" keepClear="true" to="43650" toLane="0"/>
	<connection contPos="-4.0" from="43614" fromLane="2" keepClear="true" to="43624" toLane="2"/>
	<connection contPos="-4.0" from="43650" fromLane="0" keepClear="true" to="43598" toLane="1"/>
	<connection contPos="-4.0" from="43456" fromLane="1" keepClear="true" to="43464" toLane="2"/>
	<connection contPos="-4.0" from="43464" fromLane="2" keepClear="true" to="43472" toLane="2"/>
	<connection contPos="-4.0" from="43472" fromLane="2" keepClear="true" to="43614" toLane="1"/>
	<connection contPos="-4.0" from="43614" fromLane="1" keepClear="true" to="43624" toLane="1"/>
	<connection contPos="-4.0" from="43624" fromLane="1" keepClear="true" to="43602" toLane="1"/>
	<connection contPos="-4.0" from="43456" fromLane="0" keepClear="true" to="43464" toLane="0"/>
	<connection contPos="-4.0" from="43456" fromLane="0" keepClear="true" to="43464" toLane="1"/>
	<connection contPos="-4.0" from="43464" fromLane="1" keepClear="true" to="43472" toLane="1"/>
	<connection contPos="-4.0" from="43472" fromLane="1" keepClear="true" to="43614" toLane="0"/>
	<connection contPos="-4.0" from="43614" fromLane="0" keepClear="true" to="43624" toLane="0"/>
	<connection contPos="-4.0" from="43624" fromLane="0" keepClear="true" to="43602" toLane="0"/>
	<connection contPos="-4.0" from="43602" fromLane="0" keepClear="true" to="43488" toLane="0"/>
	<connection contPos="-4.0" from="43464" fromLane="0" keepClear="true" to="43472" toLane="0"/>
	<connection contPos="-4.0" from="43472" fromLane="0" keepClear="true" to="43644" toLane="0"/>
	<connection contPos="-4.0" from="43644" fromLane="0" keepClear="true" to="43382" toLane="0"/>
	<connection contPos="-4.0" from="43494" fromLane="2" keepClear="true" to="43608" toLane="2"/>
	<connection contPos="-4.0" from="43608" fromLane="2" keepClear="true" to="43654" toLane="0"/>
	<connection contPos="-4.0" from="43654" fromLane="0" keepClear="true" to="43832" toLane="1"/>
	<connection contPos="-4.0" from="43494" fromLane="1" keepClear="true" to="43608" toLane="1"/>
	<connection contPos="-4.0" from="43608" fromLane="1" keepClear="true" to="43628" toLane="1"/>
	<connection contPos="-4.0" from="43628" fromLane="1" keepClear="true" to="43618" toLane="1"/>
	<connection contPos="-4.0" from="43494" fromLane="0" keepClear="true" to="43642" toLane="0"/>
	<connection contPos="-4.0" from="43494" fromLane="0" keepClear="true" to="43608" toLane="0"/>
	<connection contPos="-4.0" from="43608" fromLane="0" keepClear="true" to="43628" toLane="0"/>
	<connection contPos="-4.0" from="43628" fromLane="0" keepClear="true" to="43618" toLane="0"/>
	<connection contPos="-4.0" from="43618" fromLane="0" keepClear="true" to="43476" toLane="0"/>
	<connection contPos="-4.0" from="43642" fromLane="0" keepClear="true" to="43205" toLane="0"/>
</connections>
