<!-- generated on 2020-12-18 15:56:47.315178 by ipykernel_launcher.py v1_2_0+5214-53edc58fcd
-->
<nodes>
	<node id="1" type="from" x="0.4954166666666666" y="71.60861666666666"/>
	<node id="2" type="to" x="-2.0542666666666665" y="26.623116666666665"/>
	<node id="3" type="to" x="-2.6318333333333332" y="15.607999999999999"/>
	<node id="4" type="to" x="6.854150000000001" y="4.55475"/>
	<node id="5" type="to" x="16.30425" y="2.9099500000000003"/>
	<node id="6" type="to" x="53.542925" y="5.339550000000001"/>
	<node id="7" type="to" x="-5.04685" y="-0.6993499999999999"/>
	<node id="8" type="to" x="-5.47315" y="-8.701525"/>
	<node id="9" type="to" x="-6.54165" y="-33.574124999999995"/>
	<node id="10" type="to" x="-5.706049999999999" y="-53.2886"/>
	<node id="11" type="to" x="-5.744175" y="-60.6269"/>
	<node id="12" type="to" x="-15.1721" y="14.21445"/>
	<node id="13" type="to" x="-27.857750000000003" y="12.059025"/>
	<node id="14" type="to" x="-55.756075" y="6.682049999999999"/>
	<node id="15" type="to" x="-68.702325" y="1.6786750000000001"/>
	<node id="16" type="from" x="0.648025" y="-60.85235"/>
	<node id="17" type="to" x="0.9995499999999998" y="-53.544275"/>
	<node id="18" type="to" x="0.59025" y="-33.74993333333333"/>
	<node id="19" type="to" x="2.033583333333333" y="-9.13435"/>
	<node id="20" type="to" x="2.467333333333333" y="-0.6292000000000001"/>
	<node id="21" type="to" x="3.288783333333333" y="15.50755"/>
	<node id="22" type="to" x="-7.42645" y="10.851700000000001"/>
	<node id="23" type="to" x="5.314" y="26.403175"/>
	<node id="24" type="to" x="7.881125" y="71.174375"/>
	<node id="25" type="from" x="-65.14301666666667" y="-5.983433333333334"/>
	<node id="26" type="to" x="-52.75825" y="-1.1696499999999999"/>
	<node id="27" type="to" x="-26.988600000000005" y="1.985825"/>
	<node id="28" type="to" x="-14.848624999999998" y="2.64845"/>
	<node id="29" type="to" x="-7.807383333333334" y="4.40735"/>
	<node id="30" type="from" x="53.027350000000006" y="13.196466666666666"/>
	<node id="31" type="to" x="15.788733333333333" y="10.766866666666667"/>
	<node id="32" type="to" x="7.18465" y="10.805550000000002"/>
</nodes>
