<routes>
	<vehicle depart="0.1" departLane="0" departPos="16.05835139396092" departSpeed="9.0357018" id="37" type="passenger">
		<route edges=":30_11 2649"/>
	</vehicle>
	<vehicle depart="0.1" departLane="0" departPos="9.313908283436794" departSpeed="0.25908563" id="39" type="passenger">
		<route edges="2061 2441"/>
	</vehicle>
	<vehicle depart="0.1" departLane="0" departPos="24.316025769790834" departSpeed="0.010762001" id="314" type="passenger">
		<route edges="2061 2441"/>
	</vehicle>
	<vehicle depart="0.1" departLane="0" departPos="16.756098674129213" departSpeed="0.076771476" id="322" type="passenger">
		<route edges="2061 2441"/>
	</vehicle>
	<vehicle depart="0.1" departLane="0" departPos="9.034754504323548" departSpeed="1.3261897" id="326" type="passenger">
		<route edges=":30_5 2653"/>
	</vehicle>
	<vehicle depart="0.1" departLane="0" departPos="4.999413163875708" departSpeed="11.742791" id="334" type="passenger">
		<route edges="2062 2653"/>
	</vehicle>
	<vehicle depart="0.1" departLane="0" departPos="30.836063999289532" departSpeed="1.5429666" id="336" type="passenger">
		<route edges=":30_8 2061"/>
	</vehicle>
	<vehicle depart="0.1" departLane="0" departPos="69.00000799308994" departSpeed="0.0" id="337" type="passenger">
		<route edges="2650 2061"/>
	</vehicle>
	<vehicle depart="0.1" departLane="0" departPos="66.20472889722325" departSpeed="12.84561" id="340" type="passenger">
		<route edges="2438 2441"/>
	</vehicle>
	<vehicle depart="0.1" departLane="0" departPos="61.48499771514197" departSpeed="0.014417137" id="342" type="passenger">
		<route edges="2650 2061"/>
	</vehicle>
</routes>
