<routes>
	<vehicle depart="0.1" departLane="0" departPos="226.2472265348359" departSpeed="13.8646" id="31" type="passenger">
		<route edges="8"/>
	</vehicle>
	<vehicle depart="0.1" departLane="0" departPos="0" departSpeed="7.7943" id="32" type="passenger">
		<route edges="5"/>
	</vehicle>
	<vehicle depart="0.1" departLane="0" departPos="120.89814144606709" departSpeed="7.708" id="35" type="passenger">
		<route edges="5 5"/>
	</vehicle>
	<vehicle depart="0.1" departLane="1" departPos="207.69198407903136" departSpeed="15.1989" id="36" type="passenger">
		<route edges="5"/>
	</vehicle>
	<vehicle depart="0.1" departLane="0" departPos="0" departSpeed="4.0692" id="37" type="passenger">
		<route edges="8"/>
	</vehicle>
	<vehicle depart="0.1" departLane="0" departPos="0" departSpeed="4.1413" id="38" type="passenger">
		<route edges="8 8"/>
	</vehicle>
	<vehicle depart="0.1" departLane="1" departPos="226.2427488123092" departSpeed="16.606" id="39" type="passenger">
		<route edges="8"/>
	</vehicle>
	<vehicle depart="0.1" departLane="0" departPos="0" departSpeed="7.706" id="310" type="passenger">
		<route edges="5"/>
	</vehicle>
	<vehicle depart="0.1" departLane="1" departPos="184.61603873608604" departSpeed="15.4108" id="311" type="passenger">
		<route edges="5"/>
	</vehicle>
	<vehicle depart="0.1" departLane="1" departPos="0" departSpeed="6.9937" id="312" type="passenger">
		<route edges="8 8"/>
	</vehicle>
	<vehicle depart="0.1" departLane="1" departPos="0" departSpeed="7.753" id="313" type="passenger">
		<route edges="5"/>
	</vehicle>
	<vehicle depart="0.1" departLane="1" departPos="0" departSpeed="3.602" id="314" type="passenger">
		<route edges="5 5"/>
	</vehicle>
	<vehicle depart="0.1" departLane="1" departPos="0" departSpeed="6.9687" id="315" type="passenger">
		<route edges="8"/>
	</vehicle>
	<vehicle depart="0.1" departLane="0" departPos="0" departSpeed="7.6577" id="316" type="passenger">
		<route edges="5 5"/>
	</vehicle>
	<vehicle depart="0.1" departLane="1" departPos="0" departSpeed="3.6099" id="317" type="passenger">
		<route edges="5"/>
	</vehicle>
	<vehicle depart="0.1" departLane="0" departPos="0" departSpeed="4.3114" id="318" type="passenger">
		<route edges="8"/>
	</vehicle>
	<vehicle depart="0.1" departLane="0" departPos="0" departSpeed="3.2134" id="319" type="passenger">
		<route edges="5"/>
	</vehicle>
	<vehicle depart="0.1" departLane="0" departPos="0" departSpeed="3.1853" id="321" type="passenger">
		<route edges="5 5"/>
	</vehicle>
	<vehicle depart="0.1" departLane="1" departPos="0" departSpeed="5.0645" id="322" type="passenger">
		<route edges="8 8"/>
	</vehicle>
	<vehicle depart="0.1" departLane="0" departPos="0" departSpeed="2.8668" id="323" type="passenger">
		<route edges="5"/>
	</vehicle>
	<vehicle depart="0.1" departLane="1" departPos="0" departSpeed="4.3822" id="324" type="passenger">
		<route edges="8"/>
	</vehicle>
	<vehicle depart="0.1" departLane="0" departPos="0" departSpeed="5.5774" id="325" type="passenger">
		<route edges="8"/>
	</vehicle>
	<vehicle depart="0.1" departLane="0" departPos="0" departSpeed="2.7249" id="326" type="passenger">
		<route edges="8"/>
	</vehicle>
	<vehicle depart="0.1" departLane="1" departPos="0" departSpeed="3.3344" id="327" type="passenger">
		<route edges="8"/>
	</vehicle>
</routes>
