<routes>
	<vehicle depart="0.1" departLane="0" departPos="1.0" departSpeed="1.154748" id="35" type="bicycle">
		<route edges=":21_10 4508"/>
	</vehicle>
	<vehicle depart="0.1" departLane="0" departPos="5.772557274984068" departSpeed="0.8861453" id="315" type="bicycle">
		<route edges=":21_10 4508"/>
	</vehicle>
	<vehicle depart="0.1" departLane="0" departPos="4.920948909108953" departSpeed="0.92323284" id="31" type="passenger">
		<route edges=":21_5 4058"/>
	</vehicle>
	<vehicle depart="0.1" departLane="0" departPos="27.224104540031476" departSpeed="2.1463465" id="36" type="passenger">
		<route edges="4511 4508"/>
	</vehicle>
	<vehicle depart="0.1" departLane="0" departPos="18.697242656108152" departSpeed="0.29585477" id="310" type="passenger">
		<route edges=":21_10 4508"/>
	</vehicle>
	<vehicle depart="0.1" departLane="0" departPos="53.95423174833725" departSpeed="3.024888" id="317" type="passenger">
		<route edges="3399 4058"/>
	</vehicle>
	<vehicle depart="0.1" departLane="0" departPos="39.17058673420531" departSpeed="1.250723" id="320" type="passenger">
		<route edges="3399 4508"/>
	</vehicle>
	<vehicle depart="0.1" departLane="0" departPos="22.7561374181018" departSpeed="0.60922986" id="324" type="passenger">
		<route edges="3399 4508"/>
	</vehicle>
	<vehicle depart="0.1" departLane="0" departPos="13.993404385643549" departSpeed="8.2077728" id="355" type="passenger">
		<route edges=":21_6 4508"/>
	</vehicle>
	<vehicle depart="0.1" departLane="0" departPos="29.81984623518197" departSpeed="6.3130744" id="357" type="passenger">
		<route edges="4059 4512"/>
	</vehicle>
</routes>
