<routes>
	<vehicle depart="0.1" departLane="1" departPos="0" departSpeed="17.7658" id="31" type="passenger">
		<route edges="20 22 19"/>
	</vehicle>
	<vehicle depart="0.1" departLane="1" departPos="333.3168792881785" departSpeed="19.0235" id="32" type="passenger">
		<route edges="16 20 22 19"/>
	</vehicle>
	<vehicle depart="0.1" departLane="0" departPos="319.4426253117089" departSpeed="18.7837" id="33" type="passenger">
		<route edges="16 20 19"/>
	</vehicle>
	<vehicle depart="0.1" departLane="0" departPos="275.52974353861117" departSpeed="20.2394" id="34" type="passenger">
		<route edges="16 20 19"/>
	</vehicle>
	<vehicle depart="0.1" departLane="1" departPos="241.29475711938028" departSpeed="22.349" id="35" type="passenger">
		<route edges="16 20 22 19"/>
	</vehicle>
	<vehicle depart="0.1" departLane="1" departPos="299.12586525148174" departSpeed="20.2371" id="36" type="passenger">
		<route edges="16 20 22 19"/>
	</vehicle>
	<vehicle depart="0.1" departLane="1" departPos="0" departSpeed="21.2664" id="310" type="passenger">
		<route edges="19"/>
	</vehicle>
	<vehicle depart="0.1" departLane="0" departPos="0" departSpeed="19.5642" id="312" type="passenger">
		<route edges="22 20 22 19"/>
	</vehicle>
	<vehicle depart="0.1" departLane="1" departPos="365.5436082813546" departSpeed="17.9823" id="313" type="passenger">
		<route edges="16 20 22 19"/>
	</vehicle>
	<vehicle depart="0.1" departLane="0" departPos="348.9299894481458" departSpeed="18.1542" id="314" type="passenger">
		<route edges="16 20 19"/>
	</vehicle>
	<vehicle depart="0.1" departLane="0" departPos="239.22422049346335" departSpeed="21.6093" id="315" type="passenger">
		<route edges="16 20 19"/>
	</vehicle>
	<vehicle depart="0.1" departLane="0" departPos="100.12883328333335" departSpeed="19.7826" id="316" type="passenger">
		<route edges="17 22 20 22 19"/>
	</vehicle>
	<vehicle depart="0.1" departLane="0" departPos="200.81807474042463" departSpeed="23.2786" id="317" type="passenger">
		<route edges="16 20 19"/>
	</vehicle>
	<vehicle depart="0.1" departLane="1" departPos="201.85513781689698" departSpeed="24.0592" id="318" type="passenger">
		<route edges="16 20 19"/>
	</vehicle>
	<vehicle depart="0.1" departLane="0" departPos="68.59562382074787" departSpeed="20.5767" id="319" type="passenger">
		<route edges="17 22 20 22 19"/>
	</vehicle>
	<vehicle depart="0.1" departLane="0" departPos="166.57976421107912" departSpeed="24.0054" id="320" type="passenger">
		<route edges="16 20 19"/>
	</vehicle>
	<vehicle depart="0.1" departLane="1" departPos="157.17922176876272" departSpeed="24.2808" id="321" type="passenger">
		<route edges="16 20 19"/>
	</vehicle>
	<vehicle depart="0.1" departLane="0" departPos="125.48853482173634" departSpeed="22.0103" id="323" type="passenger">
		<route edges="16 20 19"/>
	</vehicle>
	<vehicle depart="0.1" departLane="1" departPos="124.34025230116873" departSpeed="21.6593" id="324" type="passenger">
		<route edges="16 20 19"/>
	</vehicle>
	<vehicle depart="0.1" departLane="0" departPos="24.393082748210443" departSpeed="19.738" id="325" type="passenger">
		<route edges="21 17 22 20 22 19"/>
	</vehicle>
	<vehicle depart="0.1" departLane="1" departPos="89.35720531838098" departSpeed="18.1004" id="327" type="passenger">
		<route edges="16 20 19"/>
	</vehicle>
	<vehicle depart="0.1" departLane="0" departPos="70.43989345318019" departSpeed="16.3675" id="328" type="passenger">
		<route edges="14 21 17 22 20 22 19"/>
	</vehicle>
	<vehicle depart="0.1" departLane="1" departPos="63.39677468233082" departSpeed="15.4909" id="330" type="passenger">
		<route edges="16 20 19"/>
	</vehicle>
	<vehicle depart="0.1" departLane="0" departPos="46.60365340391675" departSpeed="13.3407" id="331" type="passenger">
		<route edges="14 21 17 22 19"/>
	</vehicle>
	<vehicle depart="0.1" departLane="1" departPos="41.125282493325855" departSpeed="12.6799" id="333" type="passenger">
		<route edges="16 20 19"/>
	</vehicle>
	<vehicle depart="0.1" departLane="0" departPos="0" departSpeed="10.2364" id="334" type="passenger">
		<route edges="14 21 17 22 19"/>
	</vehicle>
	<vehicle depart="0.1" departLane="1" departPos="22.4153678879002" departSpeed="9.1629" id="336" type="passenger">
		<route edges="16 20 19"/>
	</vehicle>
	<vehicle depart="0.1" departLane="0" departPos="0" departSpeed="6.2736" id="338" type="passenger">
		<route edges="16 20 19"/>
	</vehicle>
	<vehicle depart="0.1" departLane="0" departPos="0" departSpeed="3.5208" id="340" type="passenger">
		<route edges="14 21 17 22 19"/>
	</vehicle>
</routes>
