<routes>
	<vehicle depart="0.1" departLane="1" departPos="113.26689917235657" departSpeed="9.2459819" id="1" type="passenger">
		<route edges="26 28 24"/>
	</vehicle>
	<vehicle depart="0.1" departLane="0" departPos="0" departSpeed="14.416308" id="2" type="passenger">
		<route edges="26 27 24"/>
	</vehicle>
	<vehicle depart="0.1" departLane="0" departPos="101.12286390243221" departSpeed="7.3339587" id="3" type="passenger">
		<route edges="26 26 28 24"/>
	</vehicle>
</routes>
