<!-- generated on 2020-12-18 15:43:33.840392 by ipykernel_launcher.py v1_2_0+5214-53edc58fcd
-->
<connections>
	<connection contPos="-4.0" from="26" fromLane="1" keepClear="true" to="28" toLane="0"/>
	<connection contPos="-4.0" from="26" fromLane="0" keepClear="true" to="27" toLane="0"/>
	<connection contPos="-4.0" from="27" fromLane="0" keepClear="true" to="24" toLane="0"/>
	<connection contPos="-4.0" from="28" fromLane="0" keepClear="true" to="24" toLane="0"/>
</connections>
