<routes>
	<vehicle depart="0.1" departLane="1" departPos="107.10501434640884" departSpeed="11.044674" id="1" type="passenger">
		<route edges="26 28 24"/>
	</vehicle>
	<vehicle depart="0.1" departLane="0" departPos="0" departSpeed="11.013769" id="2" type="passenger">
		<route edges="26 26 28 24"/>
	</vehicle>
	<vehicle depart="0.1" departLane="0" departPos="89.85431877874422" departSpeed="11.013383" id="3" type="passenger">
		<route edges="26 27 24"/>
	</vehicle>
</routes>
