<routes>
	<vehicle depart="0.1" departLane="0" departPos="58.77378751419622" departSpeed="0.0" id="34" type="bicycle">
		<route edges="184 156"/>
	</vehicle>
	<vehicle depart="0.1" departLane="0" departPos="129.56669869157346" departSpeed="6.9129088" id="346" type="bicycle">
		<route edges="57 19 16"/>
	</vehicle>
	<vehicle depart="0.1" departLane="0" departPos="97.64874220620982" departSpeed="6.8764111" id="363" type="bicycle">
		<route edges="57 19"/>
	</vehicle>
	<vehicle depart="0.1" departLane="0" departPos="39.707765826351825" departSpeed="0.0" id="327" type="bus">
		<route edges="156 20"/>
	</vehicle>
	<vehicle depart="0.1" departLane="0" departPos="27.011681020789464" departSpeed="1.2853152" id="385" type="bus">
		<route edges="110 248"/>
	</vehicle>
	<vehicle depart="0.1" departLane="0" departPos="14.347974910924702" departSpeed="0.0" id="389" type="bus">
		<route edges="249 17 20"/>
	</vehicle>
	<vehicle depart="0.1" departLane="0" departPos="53.512042214298326" departSpeed="0.0" id="31" type="passenger">
		<route edges="156 20"/>
	</vehicle>
	<vehicle depart="0.1" departLane="0" departPos="23.29325714196146" departSpeed="0.0" id="36" type="passenger">
		<route edges="16 248"/>
	</vehicle>
	<vehicle depart="0.1" departLane="0" departPos="51.50419903262636" departSpeed="0.0" id="38" type="passenger">
		<route edges="14 17"/>
	</vehicle>
	<vehicle depart="0.1" departLane="0" departPos="46.808067483374295" departSpeed="0.0" id="312" type="passenger">
		<route edges="156 20"/>
	</vehicle>
	<vehicle depart="0.1" departLane="0" departPos="44.33895066623721" departSpeed="0.0" id="313" type="passenger">
		<route edges="14 17"/>
	</vehicle>
	<vehicle depart="0.1" departLane="0" departPos="60.42670310115261" departSpeed="0.0" id="315" type="passenger">
		<route edges="156 20"/>
	</vehicle>
	<vehicle depart="0.1" departLane="0" departPos="2.5" departSpeed="8.6412338" id="323" type="passenger">
		<route edges="16 248"/>
	</vehicle>
	<vehicle depart="0.1" departLane="0" departPos="32.51377589090801" departSpeed="0.0" id="331" type="passenger">
		<route edges="14 17"/>
	</vehicle>
	<vehicle depart="0.1" departLane="0" departPos="175.47550183185177" departSpeed="0.0" id="332" type="passenger">
		<route edges="57 19 16"/>
	</vehicle>
	<vehicle depart="0.1" departLane="0" departPos="53.89734706645573" departSpeed="0.0" id="336" type="passenger">
		<route edges="184 156"/>
	</vehicle>
	<vehicle depart="0.1" departLane="0" departPos="25.099681914246162" departSpeed="0.0" id="338" type="passenger">
		<route edges="14 17"/>
	</vehicle>
	<vehicle depart="0.1" departLane="0" departPos="168.6654636707757" departSpeed="0.11232965" id="342" type="passenger">
		<route edges="57 19 16"/>
	</vehicle>
	<vehicle depart="0.1" departLane="0" departPos="25.211597727269872" departSpeed="0.0" id="343" type="passenger">
		<route edges="156 20"/>
	</vehicle>
	<vehicle depart="0.1" departLane="0" departPos="46.562131918839725" departSpeed="0.0" id="344" type="passenger">
		<route edges="184 156"/>
	</vehicle>
	<vehicle depart="0.1" departLane="0" departPos="2.5" departSpeed="7.8478092" id="347" type="passenger">
		<route edges="301 304"/>
	</vehicle>
	<vehicle depart="0.1" departLane="0" departPos="17.685615440447798" departSpeed="0.0" id="348" type="passenger">
		<route edges="14 17"/>
	</vehicle>
	<vehicle depart="0.1" departLane="0" departPos="12.326387132956674" departSpeed="5.6319325" id="349" type="passenger">
		<route edges=":61_1 183"/>
	</vehicle>
	<vehicle depart="0.1" departLane="0" departPos="39.0988647424739" departSpeed="0.0" id="350" type="passenger">
		<route edges="184 156"/>
	</vehicle>
	<vehicle depart="0.1" departLane="0" departPos="22.43267388214169" departSpeed="5.6007346" id="352" type="passenger">
		<route edges="159 156 20"/>
	</vehicle>
	<vehicle depart="0.1" departLane="0" departPos="161.253585862713" departSpeed="0.49318284" id="353" type="passenger">
		<route edges="57 19"/>
	</vehicle>
	<vehicle depart="0.1" departLane="0" departPos="2.5" departSpeed="7.889481" id="354" type="passenger">
		<route edges="17 20 56"/>
	</vehicle>
	<vehicle depart="0.1" departLane="0" departPos="153.2656052775142" departSpeed="1.0253972" id="357" type="passenger">
		<route edges="57 19"/>
	</vehicle>
	<vehicle depart="0.1" departLane="0" departPos="10.357016517900984" departSpeed="0.0" id="359" type="passenger">
		<route edges="14 17"/>
	</vehicle>
	<vehicle depart="0.1" departLane="0" departPos="145.06719584971611" departSpeed="1.3503271" id="361" type="passenger">
		<route edges="57 19"/>
	</vehicle>
	<vehicle depart="0.1" departLane="0" departPos="5.435323865482424" departSpeed="6.3501445" id="362" type="passenger">
		<route edges=":59_4 17 20 301 304"/>
	</vehicle>
	<vehicle depart="0.1" departLane="0" departPos="135.70892816437737" departSpeed="2.0934576" id="369" type="passenger">
		<route edges="57 19"/>
	</vehicle>
	<vehicle depart="0.1" departLane="0" departPos="53.75274721927104" departSpeed="3.712973" id="371" type="passenger">
		<route edges="110 17"/>
	</vehicle>
	<vehicle depart="0.1" departLane="0" departPos="124.1900087595425" departSpeed="3.5875997" id="374" type="passenger">
		<route edges="57 19"/>
	</vehicle>
	<vehicle depart="0.1" departLane="0" departPos="44.398707615263994" departSpeed="2.5885319" id="375" type="passenger">
		<route edges="110 248"/>
	</vehicle>
	<vehicle depart="0.1" departLane="0" departPos="109.36357147865301" departSpeed="5.9897205" id="377" type="passenger">
		<route edges="57 19"/>
	</vehicle>
	<vehicle depart="0.1" departLane="0" departPos="4.570650045430236" departSpeed="6.9877645" id="378" type="passenger">
		<route edges=":60_1 301 304"/>
	</vehicle>
	<vehicle depart="0.1" departLane="0" departPos="35.42521357776779" departSpeed="1.6996974" id="379" type="passenger">
		<route edges="110 248"/>
	</vehicle>
	<vehicle depart="0.1" departLane="0" departPos="90.16363406185258" departSpeed="8.8919405" id="381" type="passenger">
		<route edges="57 19"/>
	</vehicle>
	<vehicle depart="0.1" departLane="0" departPos="16.417454600358024" departSpeed="6.9053564" id="382" type="passenger">
		<route edges=":55_0 20 301 304"/>
	</vehicle>
	<vehicle depart="0.1" departLane="0" departPos="67.19161604548445" departSpeed="11.453543" id="383" type="passenger">
		<route edges="57 19"/>
	</vehicle>
	<vehicle depart="0.1" departLane="0" departPos="23.527763537088223" departSpeed="7.6507168" id="384" type="passenger">
		<route edges="17 20 301 304"/>
	</vehicle>
	<vehicle depart="0.1" departLane="0" departPos="11.182486920291547" departSpeed="1.250061" id="388" type="passenger">
		<route edges="110 248"/>
	</vehicle>
	<vehicle depart="0.1" departLane="0" departPos="5.9619933335398985" departSpeed="1.5399696" id="392" type="passenger">
		<route edges="159 156 20"/>
	</vehicle>
	<vehicle depart="0.1" departLane="0" departPos="37.176094029762595" departSpeed="0.0" id="322" type="motorcycle">
		<route edges="14 17"/>
	</vehicle>
	<vehicle depart="0.1" departLane="0" departPos="58.73244272997354" departSpeed="0.0" id="333" type="motorcycle">
		<route edges="184 156"/>
	</vehicle>
	<vehicle depart="0.1" departLane="0" departPos="11.685537309743665" departSpeed="4.0544476" id="358" type="motorcycle">
		<route edges="159 156 20"/>
	</vehicle>
</routes>
