<routes>
	<vehicle depart="0.1" departLane="0" departPos="20.792648528306415" departSpeed="0.64318978" id="311" type="bicycle">
		<route edges="95636 95639"/>
	</vehicle>
	<vehicle depart="0.1" departLane="0" departPos="16.544516749769798" departSpeed="1.5307403" id="313" type="bicycle">
		<route edges="95636 95639"/>
	</vehicle>
	<vehicle depart="0.1" departLane="0" departPos="2.5" departSpeed="0.36555658" id="33" type="passenger">
		<route edges=":19_10 96030"/>
	</vehicle>
	<vehicle depart="0.1" departLane="0" departPos="53.96095935322561" departSpeed="0.240605" id="35" type="passenger">
		<route edges="95638 96030"/>
	</vehicle>
	<vehicle depart="0.1" departLane="0" departPos="4.932649119311963" departSpeed="1.9722133" id="36" type="passenger">
		<route edges=":19_2 96030"/>
	</vehicle>
	<vehicle depart="0.1" departLane="0" departPos="8.595938207798307" departSpeed="0.91967585" id="37" type="passenger">
		<route edges=":19_8 95639"/>
	</vehicle>
	<vehicle depart="0.1" departLane="0" departPos="8.096799301918235" departSpeed="0.33277513" id="315" type="passenger">
		<route edges="95636 95639"/>
	</vehicle>
	<vehicle depart="0.1" departLane="0" departPos="24.369102655528156" departSpeed="0.89099696" id="30" type="truck">
		<route edges=":19_10 96030"/>
	</vehicle>
	<vehicle depart="0.1" departLane="0" departPos="56.64279659913924" departSpeed="1.8938817" id="310" type="truck">
		<route edges="95358 96030"/>
	</vehicle>
	<vehicle depart="0.1" departLane="0" departPos="11.497231989223447" departSpeed="0.51641707" id="322" type="truck">
		<route edges="96037 95636"/>
	</vehicle>
</routes>
