<routes>
	<vehicle depart="0.1" departLane="0" departPos="46.27279589370878" departSpeed="2.3108349" id="353" type="bus">
		<route edges="21146 21143"/>
	</vehicle>
	<vehicle depart="0.1" departLane="0" departPos="26.042617341241545" departSpeed="3.9121738" id="31" type="passenger">
		<route edges=":60_3 21144 21741"/>
	</vehicle>
	<vehicle depart="0.1" departLane="0" departPos="17.262401929361666" departSpeed="0.43068406" id="310" type="passenger">
		<route edges="21742 21147"/>
	</vehicle>
	<vehicle depart="0.1" departLane="0" departPos="7.017715667841897" departSpeed="1.2453934" id="314" type="passenger">
		<route edges=":60_2 21638"/>
	</vehicle>
	<vehicle depart="0.1" departLane="0" departPos="31.396873665484435" departSpeed="0.00040221002" id="322" type="passenger">
		<route edges=":54_0 21143"/>
	</vehicle>
	<vehicle depart="0.1" departLane="0" departPos="2.5" departSpeed="3.50696" id="331" type="passenger">
		<route edges=":54_4 21741"/>
	</vehicle>
	<vehicle depart="0.1" departLane="0" departPos="24.807280741496825" departSpeed="5.8277191" id="340" type="passenger">
		<route edges=":54_1 21741 20962"/>
	</vehicle>
	<vehicle depart="0.1" departLane="0" departPos="18.117426229224144" departSpeed="0.31963372" id="343" type="passenger">
		<route edges=":54_1 21741"/>
	</vehicle>
	<vehicle depart="0.1" departLane="0" departPos="59.03025790787986" departSpeed="2.3545764" id="348" type="passenger">
		<route edges="21146 21143"/>
	</vehicle>
	<vehicle depart="0.1" departLane="0" departPos="23.89378619975185" departSpeed="0.0038776645" id="330" type="motorcycle">
		<route edges=":54_0 21143"/>
	</vehicle>
</routes>
