<routes>
	<vehicle depart="0.1" departLane="0" departPos="20.02879880403251" departSpeed="0.039795468" id="38" type="bicycle">
		<route edges=":25_4 108605"/>
	</vehicle>
	<vehicle depart="0.1" departLane="0" departPos="3.132349205815375" departSpeed="0.016612483" id="310" type="bicycle">
		<route edges=":25_8 108605"/>
	</vehicle>
	<vehicle depart="0.1" departLane="0" departPos="27.024045757859938" departSpeed="7.2866375" id="333" type="bicycle">
		<route edges=":25_5 107264"/>
	</vehicle>
	<vehicle depart="0.1" departLane="0" departPos="65.39818782582822" departSpeed="0.32198708" id="313" type="passenger">
		<route edges="107265 108605"/>
	</vehicle>
	<vehicle depart="0.1" departLane="0" departPos="25.673842324135567" departSpeed="0.76264756" id="318" type="passenger">
		<route edges=":25_8 108605"/>
	</vehicle>
	<vehicle depart="0.1" departLane="0" departPos="9.142056138435741" departSpeed="1.2087745" id="319" type="passenger">
		<route edges=":25_8 108605"/>
	</vehicle>
	<vehicle depart="0.1" departLane="0" departPos="46.41666914220126" departSpeed="1.6214763" id="325" type="passenger">
		<route edges="107265 108605"/>
	</vehicle>
	<vehicle depart="0.1" departLane="0" departPos="38.91493235936802" departSpeed="1.4709162" id="332" type="passenger">
		<route edges="107265 108605"/>
	</vehicle>
	<vehicle depart="0.1" departLane="0" departPos="24.25080957628761" departSpeed="7.7579812" id="347" type="passenger">
		<route edges=":25_2 108609"/>
	</vehicle>
	<vehicle depart="0.1" departLane="0" departPos="3.75" departSpeed="0.67747932" id="322" type="truck">
		<route edges=":25_5 107264"/>
	</vehicle>
</routes>
