<!-- generated on 2020-12-18 17:02:19.433559 by ipykernel_launcher.py v1_2_0+5214-53edc58fcd
-->
<connections>
	<connection contPos="-4.0" from="11" fromLane="0" keepClear="true" to="15" toLane="0"/>
	<connection contPos="-4.0" from="13" fromLane="0" keepClear="true" to="16" toLane="0"/>
	<connection contPos="-4.0" from="13" fromLane="0" keepClear="true" to="14" toLane="0"/>
	<connection contPos="-4.0" from="14" fromLane="0" keepClear="true" to="10" toLane="0"/>
	<connection contPos="-4.0" from="15" fromLane="0" keepClear="true" to="10" toLane="0"/>
	<connection contPos="-4.0" from="16" fromLane="0" keepClear="true" to="12" toLane="0"/>
</connections>
