<!-- generated on 2020-12-18 17:02:19.247141 by ipykernel_launcher.py v1_2_0+5214-53edc58fcd
-->
<edges>
	<edge from="1" function="normal" id="10" length="47.77521228603243" numLanes="1" priority="1" speed="36.11111111111111" spreadType="center" to="2">
		<lane allow="moped bicycle pedestrian custom1 trailer evehicle rail_urban ship private truck vip custom2 authority delivery rail_electric taxi tram army hov coach motorcycle passenger bus rail emergency" index="0" length="47.77521228603243" shape="-4.1591,-6.325950000000001 -13.750699999999998,-12.0718 -28.24955,-20.5034 -45.08665,-30.964" speed="36.11111111111111" width="2.495511997566832"/>
	</edge>
	<edge from="3" function="normal" id="11" length="230.4413059746255" numLanes="1" priority="1" speed="36.11111111111111" spreadType="center" to="4">
		<lane allow="moped bicycle pedestrian custom1 trailer evehicle rail_urban ship private truck vip custom2 authority delivery rail_electric taxi tram army hov coach motorcycle passenger bus rail emergency" index="0" length="230.4413059746255" shape="-105.60415,209.53345 -54.57925,106.22695 -3.55385,2.9204499999999998" speed="36.11111111111111" width="2.499924770868116"/>
	</edge>
	<edge from="5" function="normal" id="12" length="230.44929365969716" numLanes="1" priority="1" speed="36.11111111111111" spreadType="center" to="6">
		<lane allow="moped bicycle pedestrian custom1 trailer evehicle rail_urban ship private truck vip custom2 authority delivery rail_electric taxi tram army hov coach motorcycle passenger bus rail emergency" index="0" length="230.44929365969716" shape="-1.31035,4.02135 -52.3371,107.3327 -103.36330000000001,210.64195" speed="36.11111111111111" width="2.499970239822868"/>
	</edge>
	<edge from="7" function="normal" id="13" length="46.16136253725802" numLanes="1" priority="1" speed="36.11111111111111" spreadType="center" to="8">
		<lane allow="moped bicycle pedestrian custom1 trailer evehicle rail_urban ship private vip custom2 authority delivery rail_electric taxi tram army hov coach motorcycle passenger rail emergency" index="0" length="46.16136253725802" shape="46.748400000000004,24.6408 31.4269,16.72035 18.563699999999997,9.581949999999999 11.19255,5.1066 6.60815,1.92695" speed="36.11111111111111" width="2.4965236830440842"/>
	</edge>
	<edge from="8" function="normal" id="14" length="13.570272438786931" numLanes="1" priority="1" speed="36.11111111111111" spreadType="center" to="1">
		<lane allow="moped bicycle pedestrian custom1 trailer evehicle rail_urban ship private vip custom2 authority delivery rail_electric taxi tram army hov coach motorcycle passenger rail emergency" index="0" length="13.570272438786931" shape="6.60815,1.92695 -2.0115499999999997,-4.84325 -4.1591,-6.325950000000001" speed="36.11111111111111" width="2.495511997566832"/>
	</edge>
	<edge from="4" function="normal" id="15" length="10.21902694058133" numLanes="1" priority="1" speed="36.11111111111111" spreadType="center" to="1">
		<lane allow="moped bicycle pedestrian custom1 trailer evehicle rail_urban ship private vip custom2 authority delivery rail_electric taxi tram army hov coach motorcycle passenger rail emergency" index="0" length="10.21902694058133" shape="-3.55385,2.9204499999999998 -2.66875,0.82615 -2.2121500000000003,-0.8165 -2.05295,-2.51165 -2.1986,-3.6374500000000003 -2.6064499999999997,-4.6953499999999995 -3.2811,-5.60655 -4.1591,-6.325950000000001" speed="36.11111111111111" width="2.495511997566832"/>
	</edge>
	<edge from="8" function="normal" id="16" length="9.841646417929994" numLanes="1" priority="1" speed="36.11111111111111" spreadType="center" to="5">
		<lane allow="moped bicycle pedestrian custom1 trailer evehicle rail_urban ship private vip custom2 authority delivery rail_electric taxi tram army hov coach motorcycle passenger rail emergency" index="0" length="9.841646417929994" shape="6.60815,1.92695 4.91795,0.91935 3.66705,0.5281 3.0134,0.46815 2.35945,0.52305 1.7289,0.70395 1.14175,0.99675 0.13340000000000002,1.8327499999999999 -0.66615,2.8737000000000004 -1.31035,4.02135" speed="36.11111111111111" width="2.4965236830440842"/>
	</edge>
</edges>
