<!-- generated on Tue Feb  9 22:11:53 2021 by Eclipse SUMO netconvert Version 1.8.0
<configuration xmlns:xsi="http://www.w3.org/2001/XMLSchema-instance" xsi:noNamespaceSchemaLocation="http://sumo.dlr.de/xsd/netconvertConfiguration.xsd">

    <input>
        <node-files value="./converted_scenarios/scenario-factory/DEU_Moelln-2_1_I-1-1/DEU_Moelln-2_1_I-1-1.nod.xml"/>
        <edge-files value="./converted_scenarios/scenario-factory/DEU_Moelln-2_1_I-1-1/DEU_Moelln-2_1_I-1-1.edg.xml"/>
        <connection-files value="./converted_scenarios/scenario-factory/DEU_Moelln-2_1_I-1-1/DEU_Moelln-2_1_I-1-1.con.xml"/>
        <tllogic-files value="./converted_scenarios/scenario-factory/DEU_Moelln-2_1_I-1-1/DEU_Moelln-2_1_I-1-1.tll.xml"/>
        <type-files value="/home/zen/commonroad-interactive-benchmarks/install/commonroad-map-tool/crmapconverter/sumo_map/templates/DEU.typ.xml"/>
    </input>

    <output>
        <output-file value="./converted_scenarios/scenario-factory/DEU_Moelln-2_1_I-1-1/DEU_Moelln-2_1_I-1-1.net.xml"/>
    </output>

    <processing>
        <geometry.remove.keep-edges.explicit value="true"/>
        <geometry.avoid-overlap value="true"/>
        <offset.disable-normalization value="true"/>
    </processing>

    <junctions>
        <no-turnarounds value="true"/>
        <junctions.internal-link-detail value="20"/>
    </junctions>

    <report>
        <aggregate-warnings value="5"/>
    </report>

    <random_number>
        <seed value="1234"/>
    </random_number>

</configuration>
--><net xmlns:xsi="http://www.w3.org/2001/XMLSchema-instance" version="1.6" junctionCornerDetail="5" junctionLinkDetail="20" limitTurnSpeed="5.50" xsi:noNamespaceSchemaLocation="http://sumo.dlr.de/xsd/net_file.xsd">

    <location netOffset="0.00,0.00" convBoundary="89.64,-423.22,236.89,-242.45" origBoundary="89.64,-423.22,236.89,-242.45" projParameter="!"/>

    <type id="highway.bridleway" priority="1" speed="2.78" allow="pedestrian" oneway="1" width="2.00"/>
    <type id="highway.bus_guideway" priority="1" speed="27.78" allow="bus" oneway="1"/>
    <type id="highway.cycleway" priority="1" speed="8.33" allow="bicycle" oneway="0" width="1.00"/>
    <type id="highway.footway" priority="1" speed="2.78" allow="pedestrian" oneway="1" width="2.00"/>
    <type id="highway.ford" priority="1" speed="2.78" allow="army" oneway="0"/>
    <type id="highway.living_street" priority="2" speed="2.78" disallow="tram rail_urban rail rail_electric rail_fast ship" oneway="0"/>
    <type id="highway.motorway" priority="14" speed="39.44" allow="private emergency authority army vip passenger hov taxi bus coach delivery truck trailer motorcycle evehicle custom1 custom2" oneway="1"/>
    <type id="highway.motorway_link" priority="9" speed="22.22" allow="private emergency authority army vip passenger hov taxi bus coach delivery truck trailer motorcycle evehicle custom1 custom2" oneway="1"/>
    <type id="highway.path" priority="1" speed="2.78" allow="pedestrian bicycle" oneway="0" width="2.00"/>
    <type id="highway.pedestrian" priority="1" speed="2.78" allow="pedestrian" oneway="1" width="2.00"/>
    <type id="highway.primary" priority="12" speed="27.78" disallow="pedestrian tram rail_urban rail rail_electric rail_fast ship" oneway="0"/>
    <type id="highway.primary_link" priority="7" speed="22.22" disallow="pedestrian tram rail_urban rail rail_electric rail_fast ship" oneway="0"/>
    <type id="highway.raceway" priority="15" speed="83.33" allow="vip" oneway="0"/>
    <type id="highway.residential" priority="3" speed="13.89" disallow="pedestrian tram rail_urban rail rail_electric rail_fast ship" oneway="0"/>
    <type id="highway.secondary" priority="11" speed="27.78" disallow="pedestrian tram rail_urban rail rail_electric rail_fast ship" oneway="0"/>
    <type id="highway.secondary_link" priority="6" speed="22.22" disallow="pedestrian tram rail_urban rail rail_electric rail_fast ship" oneway="0"/>
    <type id="highway.service" priority="1" speed="5.56" allow="pedestrian delivery bicycle" oneway="0"/>
    <type id="highway.stairs" priority="1" speed="1.39" allow="pedestrian" oneway="1" width="2.00"/>
    <type id="highway.step" priority="1" speed="1.39" allow="pedestrian" oneway="1" width="2.00"/>
    <type id="highway.steps" priority="1" speed="1.39" allow="pedestrian" oneway="1" width="2.00"/>
    <type id="highway.tertiary" priority="10" speed="22.22" disallow="pedestrian tram rail_urban rail rail_electric rail_fast ship" oneway="0"/>
    <type id="highway.tertiary_link" priority="5" speed="22.22" disallow="pedestrian tram rail_urban rail rail_electric rail_fast ship" oneway="0"/>
    <type id="highway.track" priority="1" speed="5.56" allow="pedestrian motorcycle moped bicycle" oneway="0"/>
    <type id="highway.trunk" priority="13" speed="27.78" disallow="pedestrian bicycle tram rail_urban rail rail_electric rail_fast ship" oneway="0"/>
    <type id="highway.trunk_link" priority="8" speed="22.22" disallow="pedestrian bicycle tram rail_urban rail rail_electric rail_fast ship" oneway="0"/>
    <type id="highway.unclassified" priority="4" speed="13.89" disallow="pedestrian tram rail_urban rail rail_electric rail_fast ship" oneway="0"/>
    <type id="highway.unsurfaced" priority="1" speed="8.33" disallow="tram rail_urban rail rail_electric rail_fast ship" oneway="0"/>
    <type id="railway.highspeed" priority="21" speed="69.44" allow="rail_fast" oneway="1"/>
    <type id="railway.light_rail" priority="19" speed="27.78" allow="rail_urban" oneway="1"/>
    <type id="railway.preserved" priority="16" speed="27.78" allow="rail" oneway="1"/>
    <type id="railway.rail" priority="20" speed="44.44" allow="rail" oneway="1"/>
    <type id="railway.subway" priority="18" speed="27.78" allow="rail_urban" oneway="1"/>
    <type id="railway.tram" priority="17" speed="13.89" allow="tram" oneway="1"/>

    <edge id=":15_0" function="internal">
        <lane id=":15_0_0" index="0" disallow="pedestrian tram rail_urban rail rail_electric rail_fast ship" speed="36.11" length="3.26" width="3.50" shape="115.30,-305.71 112.36,-304.31"/>
    </edge>
    <edge id=":15_1" function="internal">
        <lane id=":15_1_0" index="0" disallow="pedestrian tram rail_urban rail rail_electric rail_fast ship" speed="36.11" length="3.13" width="3.50" shape="116.70,-302.62 113.92,-301.18"/>
    </edge>
    <edge id=":16_0" function="internal">
        <lane id=":16_0_0" index="0" disallow="pedestrian tram rail_urban rail rail_electric rail_fast ship" speed="36.11" length="3.01" width="3.50" shape="99.08,-293.82 96.39,-292.48"/>
        <lane id=":16_0_1" index="1" disallow="pedestrian tram rail_urban rail rail_electric rail_fast ship" speed="36.11" length="3.00" width="3.50" shape="97.53,-296.95 94.84,-295.62"/>
    </edge>
    <edge id=":20_0" function="internal">
        <lane id=":20_0_0" index="0" disallow="pedestrian tram rail_urban rail rail_electric rail_fast ship" speed="36.11" length="3.01" width="3.50" shape="93.28,-298.75 95.97,-300.09"/>
    </edge>
    <edge id=":21_0" function="internal">
        <lane id=":21_0_0" index="0" disallow="pedestrian tram rail_urban rail rail_electric rail_fast ship" speed="36.11" length="2.96" width="3.50" shape="110.85,-307.47 113.52,-308.75"/>
    </edge>
    <edge id=":23_0" function="internal">
        <lane id=":23_0_0" index="0" disallow="pedestrian tram rail_urban rail rail_electric rail_fast ship" speed="36.11" length="32.77" width="3.50" shape="196.84,-344.44 193.12,-342.72 178.33,-335.65 167.39,-330.08"/>
    </edge>
    <edge id=":23_1" function="internal">
        <lane id=":23_1_0" index="0" disallow="pedestrian tram rail_urban rail rail_electric rail_fast ship" speed="8.65" length="18.36" width="3.50" shape="196.84,-344.44 194.05,-343.30 191.15,-342.46 188.77,-342.09 186.37,-342.06 184.58,-342.31 182.84,-342.82 181.21,-343.59 179.70,-344.59 179.49,-344.78"/>
    </edge>
    <edge id=":23_2" function="internal">
        <lane id=":23_2_0" index="0" disallow="pedestrian tram rail_urban rail rail_electric rail_fast ship" speed="8.31" length="13.10" width="3.50" shape="165.74,-333.16 167.69,-334.34 169.47,-335.74 171.02,-337.38 172.29,-339.25 173.24,-341.30 173.73,-343.01"/>
    </edge>
    <edge id=":23_3" function="internal">
        <lane id=":23_3_0" index="0" disallow="pedestrian tram rail_urban rail rail_electric rail_fast ship" speed="36.11" length="32.98" width="3.50" shape="165.74,-333.16 176.77,-338.78 191.64,-345.88 195.38,-347.62"/>
    </edge>
    <edge id=":24_0" function="internal">
        <lane id=":24_0_0" index="0" disallow="pedestrian tram rail_urban rail rail_electric rail_fast ship" speed="10.68" length="26.34" width="3.50" shape="159.12,-305.72 157.58,-308.64 156.40,-310.49 155.05,-312.22 153.53,-313.80 152.69,-314.51 151.80,-315.15 150.86,-315.72 149.87,-316.19 148.84,-316.57 147.78,-316.85 146.69,-317.01 145.60,-317.07 144.50,-317.03 142.33,-316.68 140.24,-316.03 138.23,-315.15"/>
    </edge>
    <edge id=":24_1" function="internal">
        <lane id=":24_1_0" index="0" disallow="pedestrian tram rail_urban rail rail_electric rail_fast ship" speed="10.68" length="26.34" width="3.50" shape="159.12,-305.72 157.58,-308.64 156.40,-310.49 155.05,-312.22 153.53,-313.80 152.69,-314.51 151.80,-315.15 150.86,-315.72 149.87,-316.19 148.84,-316.57 147.78,-316.85 146.69,-317.01 145.60,-317.07 144.50,-317.03 142.33,-316.68 140.24,-316.03 138.23,-315.15"/>
    </edge>
    <edge id=":24_2" function="internal">
        <lane id=":24_2_0" index="0" disallow="pedestrian tram rail_urban rail rail_electric rail_fast ship" speed="11.97" length="31.82" width="3.50" shape="159.12,-305.72 157.58,-309.39 156.75,-311.91 156.15,-314.49 155.82,-317.12 155.83,-319.77 155.99,-321.08 156.26,-322.38 156.64,-323.65 157.14,-324.88 157.75,-326.05 158.47,-327.17 159.28,-328.21 160.18,-329.19 162.18,-330.93 164.38,-332.41 165.54,-333.06"/>
    </edge>
    <edge id=":24_3" function="internal">
        <lane id=":24_3_0" index="0" disallow="pedestrian tram rail_urban rail rail_electric rail_fast ship" speed="10.93" length="26.41" width="3.50" shape="167.18,-329.97 166.22,-329.43 164.36,-328.18 162.71,-326.72 162.01,-325.95 161.38,-325.10 160.82,-324.21 160.35,-323.28 159.97,-322.30 159.68,-321.29 159.48,-320.24 159.37,-319.21 159.38,-317.00 159.68,-314.79 160.21,-312.60 160.92,-310.43 162.28,-307.22"/>
    </edge>
    <edge id=":24_4" function="internal">
        <lane id=":24_4_0" index="0" disallow="pedestrian tram rail_urban rail rail_electric rail_fast ship" speed="36.11" length="32.52" width="3.50" shape="167.18,-329.97 148.54,-320.32 138.23,-315.15"/>
    </edge>
    <edge id=":24_5" function="internal">
        <lane id=":24_5_0" index="0" disallow="pedestrian tram rail_urban rail rail_electric rail_fast ship" speed="36.11" length="32.52" width="3.50" shape="167.18,-329.97 148.54,-320.32 138.23,-315.15"/>
    </edge>
    <edge id=":24_6" function="internal">
        <lane id=":24_6_0" index="0" disallow="pedestrian tram rail_urban rail rail_electric rail_fast ship" speed="36.11" length="32.43" width="3.50" shape="136.67,-318.29 146.95,-323.44 165.54,-333.06"/>
    </edge>
    <edge id=":24_7" function="internal">
        <lane id=":24_7_0" index="0" disallow="pedestrian tram rail_urban rail rail_electric rail_fast ship" speed="11.74" length="31.99" width="3.50" shape="136.67,-318.29 139.06,-319.34 141.59,-320.13 144.21,-320.58 145.61,-320.65 146.99,-320.59 148.36,-320.40 149.71,-320.07 151.03,-319.62 152.28,-319.04 153.47,-318.35 154.59,-317.56 155.65,-316.68 157.49,-314.81 159.10,-312.76 160.50,-310.58 162.28,-307.22"/>
    </edge>

    <edge id="52058" from="23" to="13" priority="3" type="highway.residential" spreadType="center" length="83.01">
        <lane id="52058_0" index="0" disallow="pedestrian tram rail_urban rail rail_electric rail_fast ship" speed="36.11" length="83.01" width="3.50" customShape="1" shape="176.50,-343.86 161.00,-394.39 152.15,-423.22"/>
    </edge>
    <edge id="52326" from="24" to="3" priority="3" type="highway.residential" spreadType="center" length="70.00" shape="156.40,-319.02 192.23,-243.95">
        <lane id="52326_0" index="0" disallow="pedestrian tram rail_urban rail rail_electric rail_fast ship" speed="36.11" length="70.00" width="3.50" customShape="1" shape="162.28,-307.22 178.81,-272.30 192.23,-243.95"/>
    </edge>
    <edge id="52327" from="14" to="24" priority="3" type="highway.residential" spreadType="center" length="70.01" shape="189.06,-242.45 153.25,-317.52">
        <lane id="52327_0" index="0" disallow="pedestrian tram rail_urban rail rail_electric rail_fast ship" speed="36.11" length="70.01" width="3.50" customShape="1" shape="189.06,-242.45 175.65,-270.80 159.12,-305.73"/>
    </edge>
    <edge id="52540" from="20" to="21" priority="3" type="highway.residential" spreadType="center" length="16.61">
        <lane id="52540_0" index="0" disallow="pedestrian tram rail_urban rail rail_electric rail_fast ship" speed="36.11" length="16.61" width="3.50" customShape="1" shape="95.97,-300.09 103.39,-303.77 110.85,-307.47"/>
    </edge>
    <edge id="52542" from="15" to="16" priority="3" type="highway.residential" spreadType="center" length="16.56">
        <lane id="52542_0" index="0" disallow="pedestrian tram rail_urban rail rail_electric rail_fast ship" speed="36.11" length="16.56" width="3.50" acceleration="1" customShape="1" shape="113.92,-301.18 106.50,-297.50 99.08,-293.82"/>
        <lane id="52542_1" index="1" disallow="pedestrian tram rail_urban rail rail_electric rail_fast ship" speed="36.11" length="16.56" width="3.50" customShape="1" shape="112.36,-304.31 104.95,-300.63 97.53,-296.95"/>
    </edge>
    <edge id="52827" from="23" to="12" priority="3" type="highway.residential" spreadType="center" length="44.09" shape="178.92,-343.93 235.43,-366.05">
        <lane id="52827_0" index="0" disallow="pedestrian tram rail_urban rail rail_electric rail_fast ship" speed="36.11" length="44.09" width="3.50" customShape="1" shape="195.38,-347.62 215.41,-356.84 235.43,-366.05"/>
    </edge>
    <edge id="52828" from="17" to="23" priority="3" type="highway.residential" spreadType="center" length="44.10" shape="236.89,-362.87 180.20,-340.67">
        <lane id="52828_0" index="0" disallow="pedestrian tram rail_urban rail rail_electric rail_fast ship" speed="36.11" length="44.10" width="3.50" customShape="1" shape="236.89,-362.87 216.87,-353.66 196.83,-344.43"/>
    </edge>
    <edge id="52830" from="24" to="23" priority="3" type="highway.residential" spreadType="center" length="0.24" shape="153.56,-319.43 178.39,-343.57">
        <lane id="52830_0" index="0" disallow="pedestrian tram rail_urban rail rail_electric rail_fast ship" speed="36.11" length="0.24" width="3.50" customShape="1" shape="165.54,-333.06 165.65,-333.11 165.75,-333.17"/>
    </edge>
    <edge id="52831" from="23" to="24" priority="3" type="highway.residential" spreadType="center" length="0.24" shape="180.83,-341.06 156.00,-316.92">
        <lane id="52831_0" index="0" disallow="pedestrian tram rail_urban rail rail_electric rail_fast ship" speed="36.11" length="0.24" width="3.50" customShape="1" shape="167.39,-330.08 167.28,-330.02 167.18,-329.96"/>
    </edge>
    <edge id="52833" from="21" to="24" priority="3" type="highway.residential" spreadType="center" length="25.07" shape="112.18,-308.13 154.44,-319.94">
        <lane id="52833_0" index="0" disallow="pedestrian tram rail_urban rail rail_electric rail_fast ship" speed="36.11" length="25.07" width="3.50" customShape="1" shape="113.52,-308.75 116.06,-309.92 122.96,-312.66 131.76,-316.05 136.47,-318.19 136.56,-318.23 136.69,-318.30"/>
    </edge>
    <edge id="54245" from="19" to="20" priority="3" type="highway.residential" spreadType="center" length="4.06">
        <lane id="54245_0" index="0" disallow="pedestrian tram rail_urban rail rail_electric rail_fast ship" speed="36.11" length="4.06" width="3.50" customShape="1" shape="89.64,-296.95 92.13,-298.19 93.28,-298.75"/>
    </edge>
    <edge id="54253" from="16" to="18" priority="3" type="highway.residential" spreadType="center" length="4.07">
        <lane id="54253_0" index="0" disallow="pedestrian tram rail_urban rail rail_electric rail_fast ship" speed="36.11" length="4.07" width="3.50" customShape="1" shape="96.39,-292.48 95.24,-291.91 92.74,-290.67"/>
        <lane id="54253_1" index="1" disallow="pedestrian tram rail_urban rail rail_electric rail_fast ship" speed="36.11" length="4.07" width="3.50" customShape="1" shape="94.84,-295.62 93.69,-295.05 91.19,-293.81"/>
    </edge>
    <edge id="54534" from="24" to="15" priority="3" type="highway.residential" spreadType="center" length="24.81" shape="155.44,-316.60 114.49,-303.41">
        <lane id="54534_0" index="0" disallow="pedestrian tram rail_urban rail rail_electric rail_fast ship" speed="36.11" length="24.81" width="3.50" customShape="1" shape="138.23,-315.15 138.11,-315.10 138.01,-315.05 133.21,-312.87 124.38,-309.46 117.53,-306.74 115.30,-305.71"/>
    </edge>
    <edge id="54535" from="24" to="15" priority="3" type="highway.residential" spreadType="center" length="24.92">
        <lane id="54535_0" index="0" disallow="pedestrian tram rail_urban rail rail_electric rail_fast ship" speed="36.11" length="24.92" width="3.50" customShape="1" shape="138.23,-315.15 138.11,-315.10 138.01,-315.05 133.10,-312.40 119.72,-304.23 116.70,-302.62"/>
    </edge>

    <junction id="12" type="dead_end" x="235.43" y="-366.05" incLanes="52827_0" intLanes="" shape="234.70,-367.64 236.16,-364.46" rightOfWay="edgePriority"/>
    <junction id="13" type="dead_end" x="152.15" y="-423.22" incLanes="52058_0" intLanes="" shape="150.48,-422.71 153.82,-423.73" rightOfWay="edgePriority"/>
    <junction id="14" type="dead_end" x="189.06" y="-242.45" incLanes="" intLanes="" shape="190.65,-243.20 187.48,-241.70" rightOfWay="edgePriority"/>
    <junction id="15" type="priority" x="114.49" y="-303.41" incLanes="54534_0 54535_0" intLanes=":15_0_0 :15_1_0" shape="117.12,-301.70 114.58,-307.31 111.58,-305.88 114.69,-299.61 115.65,-300.29 115.92,-300.63 116.19,-300.97 116.55,-301.32" rightOfWay="edgePriority">
        <request index="0" response="00" foes="00" cont="0"/>
        <request index="1" response="00" foes="00" cont="0"/>
    </junction>
    <junction id="16" type="priority" x="96.96" y="-294.72" incLanes="52542_0 52542_1" intLanes=":16_0_0 :16_0_1" shape="99.86,-292.25 96.75,-298.52 94.06,-297.19 97.17,-290.91" rightOfWay="edgePriority">
        <request index="0" response="00" foes="00" cont="0"/>
        <request index="1" response="00" foes="00" cont="0"/>
    </junction>
    <junction id="17" type="dead_end" x="236.89" y="-362.87" incLanes="" intLanes="" shape="236.16,-364.46 237.62,-361.28" rightOfWay="edgePriority"/>
    <junction id="18" type="dead_end" x="91.97" y="-292.24" incLanes="54253_0 54253_1" intLanes="" shape="93.52,-289.11 90.41,-295.38" rightOfWay="edgePriority"/>
    <junction id="19" type="dead_end" x="89.64" y="-296.95" incLanes="" intLanes="" shape="90.42,-295.38 88.87,-298.52" rightOfWay="edgePriority"/>
    <junction id="20" type="priority" x="94.63" y="-299.42" incLanes="54245_0" intLanes=":20_0_0" shape="96.75,-298.52 95.19,-301.65 92.51,-300.32 94.06,-297.19" rightOfWay="edgePriority">
        <request index="0" response="0" foes="0" cont="0"/>
    </junction>
    <junction id="21" type="priority" x="112.18" y="-308.13" incLanes="52540_0" intLanes=":21_0_0" shape="114.26,-307.16 112.79,-310.34 110.08,-309.04 111.63,-305.90" rightOfWay="edgePriority">
        <request index="0" response="0" foes="0" cont="0"/>
    </junction>
    <junction id="23" type="priority" x="179.61" y="-342.32" incLanes="52828_0 52830_0" intLanes=":23_0_0 :23_1_0 :23_2_0 :23_3_0" shape="197.58,-342.85 194.65,-349.21 189.82,-347.06 185.83,-345.45 182.66,-344.38 180.33,-343.84 178.84,-343.84 178.17,-344.38 174.83,-343.35 174.13,-341.08 172.80,-339.72 170.83,-338.20 168.20,-336.53 164.92,-334.71 168.21,-328.53">
        <request index="0" response="0000" foes="0000" cont="0"/>
        <request index="1" response="1100" foes="1100" cont="0"/>
        <request index="2" response="0000" foes="0010" cont="0"/>
        <request index="3" response="0000" foes="0010" cont="0"/>
    </junction>
    <junction id="24" type="priority" x="154.84" y="-318.24" incLanes="52327_0 52831_0 52833_0" intLanes=":24_0_0 :24_1_0 :24_2_0 :24_3_0 :24_4_0 :24_5_0 :24_6_0 :24_7_0" shape="157.54,-304.98 163.86,-307.97 162.06,-312.60 161.25,-316.74 161.43,-320.40 162.62,-323.56 164.81,-326.23 167.99,-328.42 164.72,-334.60 135.90,-319.86 139.00,-313.59 142.77,-314.96 146.27,-315.21 149.50,-314.33 152.45,-312.34 155.13,-309.22">
        <request index="0" response="00010000" foes="00010000" cont="0"/>
        <request index="1" response="00110000" foes="00110000" cont="0"/>
        <request index="2" response="11110000" foes="11110000" cont="0"/>
        <request index="3" response="00000000" foes="10000000" cont="0"/>
        <request index="4" response="00000000" foes="10000111" cont="0"/>
        <request index="5" response="00000000" foes="10000110" cont="0"/>
        <request index="6" response="00000000" foes="00000100" cont="0"/>
        <request index="7" response="00111000" foes="00111100" cont="0"/>
    </junction>
    <junction id="3" type="dead_end" x="192.23" y="-243.95" incLanes="52326_0" intLanes="" shape="193.81,-244.70 190.65,-243.20" rightOfWay="edgePriority"/>

    <connection from="52327" to="54535" fromLane="0" toLane="0" contPos="-4.00" shape="159.12,-305.72 157.58,-308.64 156.40,-310.49 155.05,-312.22 153.53,-313.80 152.69,-314.51 151.80,-315.15 150.86,-315.72 149.87,-316.19 148.84,-316.57 147.78,-316.85 146.69,-317.01 145.60,-317.07 144.50,-317.03 142.33,-316.68 140.24,-316.03 138.23,-315.15" via=":24_0_0" dir="r" state="m"/>
    <connection from="52327" to="54534" fromLane="0" toLane="0" contPos="-4.00" shape="159.12,-305.72 157.58,-308.64 156.40,-310.49 155.05,-312.22 153.53,-313.80 152.69,-314.51 151.80,-315.15 150.86,-315.72 149.87,-316.19 148.84,-316.57 147.78,-316.85 146.69,-317.01 145.60,-317.07 144.50,-317.03 142.33,-316.68 140.24,-316.03 138.23,-315.15" via=":24_1_0" dir="R" state="m"/>
    <connection from="52327" to="52830" fromLane="0" toLane="0" contPos="-4.00" shape="159.12,-305.72 157.58,-309.39 156.75,-311.91 156.15,-314.49 155.82,-317.12 155.83,-319.77 155.99,-321.08 156.26,-322.38 156.64,-323.65 157.14,-324.88 157.75,-326.05 158.47,-327.17 159.28,-328.21 160.18,-329.19 162.18,-330.93 164.38,-332.41 165.54,-333.06" via=":24_2_0" dir="l" state="m"/>
    <connection from="52540" to="52833" fromLane="0" toLane="0" contPos="-4.00" via=":21_0_0" dir="s" state="M"/>
    <connection from="52542" to="54253" fromLane="0" toLane="0" contPos="-4.00" via=":16_0_0" dir="s" state="M"/>
    <connection from="52542" to="54253" fromLane="1" toLane="1" contPos="-4.00" via=":16_0_1" dir="s" state="M"/>
    <connection from="52828" to="52831" fromLane="0" toLane="0" contPos="-4.00" shape="196.83,-344.43 193.12,-342.72 178.33,-335.65 167.39,-330.08" via=":23_0_0" dir="s" state="M"/>
    <connection from="52828" to="52058" fromLane="0" toLane="0" contPos="-4.00" shape="196.83,-344.43 194.05,-343.30 191.15,-342.46 188.77,-342.09 186.37,-342.06 184.58,-342.31 182.84,-342.82 181.21,-343.59 179.70,-344.59 178.35,-345.79 176.79,-347.62 175.48,-349.64 174.13,-352.34 172.87,-355.73 172.68,-356.30" via=":23_1_0" dir="l" state="m"/>
    <connection from="52830" to="52058" fromLane="0" toLane="0" contPos="-4.00" shape="165.75,-333.17 167.69,-334.34 169.47,-335.74 171.02,-337.38 172.29,-339.25 173.24,-341.30 173.86,-343.48 174.16,-345.72 174.18,-348.54 173.86,-351.35 173.15,-354.67 172.68,-356.30" via=":23_2_0" dir="r" state="M"/>
    <connection from="52830" to="52827" fromLane="0" toLane="0" contPos="-4.00" shape="165.75,-333.17 176.77,-338.78 191.64,-345.88 195.38,-347.62" via=":23_3_0" dir="s" state="M"/>
    <connection from="52831" to="52326" fromLane="0" toLane="0" contPos="-4.00" shape="167.18,-329.97 166.22,-329.43 164.36,-328.18 162.71,-326.72 162.01,-325.95 161.38,-325.10 160.82,-324.21 160.35,-323.28 159.97,-322.30 159.68,-321.29 159.48,-320.24 159.37,-319.21 159.38,-317.00 159.68,-314.79 160.21,-312.60 160.92,-310.43 162.28,-307.22" via=":24_3_0" dir="r" state="M"/>
    <connection from="52831" to="54535" fromLane="0" toLane="0" contPos="-4.00" shape="167.18,-329.97 148.54,-320.32 138.23,-315.15" via=":24_4_0" dir="s" state="M"/>
    <connection from="52831" to="54534" fromLane="0" toLane="0" contPos="-4.00" shape="167.18,-329.97 148.54,-320.32 138.23,-315.15" via=":24_5_0" dir="s" state="M"/>
    <connection from="52833" to="52830" fromLane="0" toLane="0" contPos="-4.00" shape="136.69,-318.30 146.95,-323.44 165.54,-333.06" via=":24_6_0" dir="s" state="M"/>
    <connection from="52833" to="52326" fromLane="0" toLane="0" contPos="-4.00" shape="136.69,-318.30 139.06,-319.34 141.59,-320.13 144.21,-320.58 145.61,-320.65 146.99,-320.59 148.36,-320.40 149.71,-320.07 151.03,-319.62 152.28,-319.04 153.47,-318.35 154.59,-317.56 155.65,-316.68 157.49,-314.81 159.10,-312.76 160.50,-310.58 162.28,-307.22" via=":24_7_0" dir="L" state="m"/>
    <connection from="54245" to="52540" fromLane="0" toLane="0" contPos="-4.00" via=":20_0_0" dir="s" state="M"/>
    <connection from="54534" to="52542" fromLane="0" toLane="1" contPos="-4.00" via=":15_0_0" dir="s" state="M"/>
    <connection from="54535" to="52542" fromLane="0" toLane="0" contPos="-4.00" via=":15_1_0" dir="s" state="M"/>

    <connection from=":15_0" to="52542" fromLane="0" toLane="1" dir="s" state="M"/>
    <connection from=":15_1" to="52542" fromLane="0" toLane="0" dir="s" state="M"/>
    <connection from=":16_0" to="54253" fromLane="0" toLane="0" dir="s" state="M"/>
    <connection from=":16_0" to="54253" fromLane="1" toLane="1" dir="s" state="M"/>
    <connection from=":20_0" to="52540" fromLane="0" toLane="0" dir="s" state="M"/>
    <connection from=":21_0" to="52833" fromLane="0" toLane="0" dir="s" state="M"/>
    <connection from=":23_0" to="52831" fromLane="0" toLane="0" dir="s" state="M"/>
    <connection from=":23_1" to="52058" fromLane="0" toLane="0" dir="l" state="M"/>
    <connection from=":23_2" to="52058" fromLane="0" toLane="0" dir="r" state="M"/>
    <connection from=":23_3" to="52827" fromLane="0" toLane="0" dir="s" state="M"/>
    <connection from=":24_0" to="54535" fromLane="0" toLane="0" dir="r" state="M"/>
    <connection from=":24_1" to="54534" fromLane="0" toLane="0" dir="R" state="M"/>
    <connection from=":24_2" to="52830" fromLane="0" toLane="0" dir="l" state="M"/>
    <connection from=":24_3" to="52326" fromLane="0" toLane="0" dir="r" state="M"/>
    <connection from=":24_4" to="54535" fromLane="0" toLane="0" dir="s" state="M"/>
    <connection from=":24_5" to="54534" fromLane="0" toLane="0" dir="s" state="M"/>
    <connection from=":24_6" to="52830" fromLane="0" toLane="0" dir="s" state="M"/>
    <connection from=":24_7" to="52326" fromLane="0" toLane="0" dir="L" state="M"/>

</net>