<routes>
	<vehicle depart="0.1" departLane="0" departPos="6.336317130309896" departSpeed="2.0566025" id="31" type="passenger">
		<route edges=":24_2 52830"/>
	</vehicle>
	<vehicle depart="0.1" departLane="0" departPos="49.96287356378155" departSpeed="2.8852481" id="32" type="passenger">
		<route edges="52327 52830"/>
	</vehicle>
	<vehicle depart="0.1" departLane="0" departPos="17.385333722733463" departSpeed="12.769449" id="321" type="passenger">
		<route edges=":23_0 52831 54534"/>
	</vehicle>
	<vehicle depart="0.1" departLane="0" departPos="2.5" departSpeed="10.538919" id="322" type="passenger">
		<route edges=":23_0 52831 52326"/>
	</vehicle>
	<vehicle depart="0.1" departLane="0" departPos="31.694544409443573" departSpeed="9.5583764" id="323" type="passenger">
		<route edges="52828 52831"/>
	</vehicle>
</routes>
