<routes>
	<vehicle depart="0.1" departLane="0" departPos="71.74119424119823" departSpeed="4.1491567" id="1" type="passenger">
		<route edges="50201 50213 50197"/>
	</vehicle>
	<vehicle depart="0.1" departLane="0" departPos="104.95632912331287" departSpeed="1.4481635" id="2" type="passenger">
		<route edges="50195 50211 50199"/>
	</vehicle>
	<vehicle depart="0.1" departLane="0" departPos="93.57107659565179" departSpeed="5.2127989" id="4" type="passenger">
		<route edges="50205 50207 50197"/>
	</vehicle>
	<vehicle depart="0.1" departLane="0" departPos="101.5712104136257" departSpeed="6.6035643" id="5" type="passenger">
		<route edges="50205 50217 50199"/>
	</vehicle>
	<vehicle depart="0.1" departLane="0" departPos="46.978247572266625" departSpeed="0.8440197" id="7" type="passenger">
		<route edges="50201 50213 50197"/>
	</vehicle>
</routes>
