<!-- generated on 2020-12-18 17:01:50.031741 by ipykernel_launcher.py v1_2_0+5214-53edc58fcd
-->
<tlLogics/>
