<?xml version="1.0" encoding="UTF-8"?>

<!-- generated on Fri Dec 18 17:01:50 2020 by Eclipse SUMO netconvert Version 1.8.0
<configuration xmlns:xsi="http://www.w3.org/2001/XMLSchema-instance" xsi:noNamespaceSchemaLocation="http://sumo.dlr.de/xsd/netconvertConfiguration.xsd">

    <input>
        <node-files value="./converted_scenarios/SUMO/DEU_Muc-27_1_I-1-1/nodes.net.xml"/>
        <edge-files value="./converted_scenarios/SUMO/DEU_Muc-27_1_I-1-1/edges.net.xml"/>
        <connection-files value="./converted_scenarios/SUMO/DEU_Muc-27_1_I-1-1/_connections.net.xml"/>
        <tllogic-files value="./converted_scenarios/SUMO/DEU_Muc-27_1_I-1-1/_tll.net.xml"/>
    </input>

    <output>
        <output-file value="./converted_scenarios/SUMO/DEU_Muc-27_1_I-1-1/DEU_Muc-27_1_I-1-1.net.xml"/>
    </output>

    <processing>
        <plain.extend-edge-shape value="true"/>
        <geometry.remove.keep-edges.explicit value="true"/>
        <geometry.avoid-overlap value="true"/>
        <offset.disable-normalization value="true"/>
    </processing>

    <junctions>
        <no-turnarounds value="true"/>
        <junctions.internal-link-detail value="20"/>
    </junctions>

    <report>
        <aggregate-warnings value="5"/>
    </report>

    <random_number>
        <seed value="1234"/>
    </random_number>

</configuration>
-->

<net version="1.6" junctionCornerDetail="5" junctionLinkDetail="20" limitTurnSpeed="5.50" xmlns:xsi="http://www.w3.org/2001/XMLSchema-instance" xsi:noNamespaceSchemaLocation="http://sumo.dlr.de/xsd/net_file.xsd">

    <location netOffset="0.00,0.00" convBoundary="-27.10,-83.92,172.28,95.91" origBoundary="-27.10,-83.92,172.28,95.91" projParameter="!"/>

    <edge id=":10_0" function="internal">
        <lane id=":10_0_0" index="0" disallow="bus truck rail_fast" speed="36.11" length="9.00" width="2.50" shape="-6.70,13.69 -4.42,4.98"/>
    </edge>
    <edge id=":10_1" function="internal">
        <lane id=":10_1_0" index="0" disallow="bus truck rail_fast" speed="7.62" length="10.09" width="2.50" shape="-6.70,13.69 -6.49,12.89 -6.27,12.13 -6.05,11.41 -5.81,10.74 -5.58,10.11 -5.33,9.52 -5.08,8.97 -4.82,8.47 -4.55,8.00 -4.28,7.58 -3.99,7.21 -3.70,6.87 -3.41,6.58 -3.10,6.33 -2.79,6.12 -2.48,5.96 -2.15,5.83 -1.82,5.75 -1.48,5.72"/>
    </edge>
    <edge id=":11_0" function="internal">
        <lane id=":11_0_0" index="0" disallow="bus truck rail_fast" speed="23.70" length="6.87" width="2.50" shape="-1.52,8.11 -1.80,8.54 -2.05,8.93 -2.28,9.28 -2.48,9.60 -2.66,9.90 -2.83,10.17 -2.97,10.43 -3.11,10.68 -3.23,10.93 -3.34,11.18 -3.45,11.44 -3.55,11.70 -3.64,11.98 -3.74,12.29 -3.83,12.62 -3.94,12.99 -4.04,13.39 -4.16,13.84 -4.28,14.34"/>
    </edge>
    <edge id=":11_1" function="internal">
        <lane id=":11_1_0" index="0" disallow="bus truck rail_fast" speed="36.11" length="8.97" width="2.50" shape="-2.01,5.66 -4.28,14.34"/>
    </edge>
    <edge id=":2_0" function="internal">
        <lane id=":2_0_0" index="0" disallow="bus truck rail_fast" speed="6.25" length="6.59" width="2.50" shape="4.95,9.00 4.76,8.94 4.52,8.87 4.23,8.78 3.90,8.68 3.53,8.57 3.13,8.45 2.71,8.33 2.27,8.22 1.83,8.10 1.39,8.00 0.95,7.90 0.53,7.82 0.13,7.76 -0.24,7.72 -0.57,7.70 -0.87,7.71 -1.11,7.75 -1.29,7.83 -1.41,7.94"/>
    </edge>
    <edge id=":2_1" function="internal">
        <lane id=":2_1_0" index="0" disallow="bus truck rail_fast" speed="8.83" length="7.39" width="2.50" shape="4.95,9.00 4.37,8.83 3.83,8.66 3.31,8.48 2.81,8.31 2.34,8.14 1.90,7.97 1.48,7.79 1.09,7.62 0.72,7.44 0.38,7.27 0.07,7.09 -0.22,6.92 -0.48,6.74 -0.71,6.57 -0.92,6.39 -1.11,6.21 -1.26,6.04 -1.40,5.86 -1.50,5.68"/>
    </edge>
    <edge id=":3_0" function="internal">
        <lane id=":3_0_0" index="0" disallow="bus truck rail_fast" speed="36.11" length="5.75" width="2.50" shape="0.43,4.46 0.81,4.65 1.16,4.83 1.47,4.99 1.76,5.13 2.01,5.26 2.26,5.38 2.48,5.49 2.70,5.59 2.91,5.68 3.12,5.77 3.33,5.86 3.55,5.94 3.79,6.02 4.04,6.11 4.32,6.20 4.62,6.29 4.96,6.40 5.33,6.51 5.74,6.63"/>
    </edge>
    <edge id=":3_1" function="internal">
        <lane id=":3_1_0" index="0" disallow="bus truck rail_fast" speed="23.75" length="7.14" width="2.50" shape="-1.28,5.71 -0.75,5.68 -0.27,5.66 0.16,5.65 0.56,5.64 0.92,5.64 1.25,5.65 1.56,5.66 1.86,5.68 2.14,5.71 2.42,5.75 2.70,5.80 2.99,5.86 3.30,5.93 3.62,6.02 3.97,6.11 4.35,6.22 4.77,6.34 5.23,6.48 5.74,6.63"/>
    </edge>
    <edge id=":5_0" function="internal">
        <lane id=":5_0_0" index="0" disallow="bus truck rail_fast" speed="10.62" length="9.77" width="2.50" shape="-1.59,5.50 -1.91,4.87 -2.19,4.30 -2.43,3.77 -2.63,3.27 -2.79,2.81 -2.92,2.38 -3.01,1.96 -3.07,1.56 -3.10,1.16 -3.10,0.76 -3.07,0.36 -3.02,-0.06 -2.94,-0.49 -2.84,-0.95 -2.71,-1.44 -2.57,-1.97 -2.41,-2.54 -2.23,-3.17 -2.04,-3.85"/>
    </edge>
    <edge id=":5_1" function="internal">
        <lane id=":5_1_0" index="0" disallow="bus truck rail_fast" speed="36.11" length="8.94" width="2.50" shape="-4.37,4.79 -2.04,-3.85"/>
    </edge>
    <edge id=":8_0" function="internal">
        <lane id=":8_0_0" index="0" disallow="bus truck rail_fast" speed="6.52" length="7.91" width="2.50" shape="0.36,-3.16 0.18,-2.48 0.01,-1.83 -0.13,-1.21 -0.26,-0.62 -0.37,-0.06 -0.45,0.46 -0.52,0.95 -0.56,1.41 -0.59,1.84 -0.60,2.24 -0.58,2.60 -0.55,2.93 -0.49,3.23 -0.42,3.50 -0.33,3.74 -0.21,3.95 -0.08,4.12 0.08,4.26 0.25,4.37"/>
    </edge>
    <edge id=":8_1" function="internal">
        <lane id=":8_1_0" index="0" disallow="bus truck rail_fast" speed="36.11" length="8.93" width="2.50" shape="0.36,-3.16 -1.96,5.47"/>
    </edge>

    <edge id="100" from="10" to="5" priority="1" spreadType="center" length="14.78">
        <lane id="100_0" index="0" disallow="bus truck rail_fast" speed="36.11" length="14.78" width="2.50" customShape="1" shape="-4.42,4.98 -4.37,4.79"/>
    </edge>
    <edge id="101" from="8" to="11" priority="1" spreadType="center" length="14.75">
        <lane id="101_0" index="0" disallow="bus truck rail_fast" speed="36.11" length="14.75" width="2.50" customShape="1" shape="-1.96,5.47 -2.01,5.66"/>
    </edge>
    <edge id="90" from="1" to="2" priority="1" spreadType="center" length="174.24">
        <lane id="90_0" index="0" disallow="rail_fast" speed="36.11" length="174.24" width="2.50" customShape="1" shape="171.63,53.56 144.97,46.35 77.94,28.81 48.27,21.17 27.91,15.69 4.95,9.00"/>
    </edge>
    <edge id="91" from="3" to="4" priority="1" spreadType="center" length="174.18">
        <lane id="91_0" index="0" disallow="rail_fast" speed="36.11" length="174.18" width="2.50" customShape="1" shape="5.74,6.63 28.60,13.29 48.94,18.76 78.59,26.40 145.62,43.93 172.28,51.14"/>
    </edge>
    <edge id="92" from="5" to="6" priority="1" spreadType="center" length="84.82">
        <lane id="92_0" index="0" disallow="rail_fast" speed="36.11" length="84.82" width="2.50" customShape="1" shape="-2.04,-3.85 8.99,-43.10 20.45,-83.92"/>
    </edge>
    <edge id="93" from="7" to="8" priority="1" spreadType="center" length="84.80">
        <lane id="93_0" index="0" disallow="rail_fast" speed="36.11" length="84.80" width="2.50" customShape="1" shape="22.86,-83.25 11.39,-42.43 0.36,-3.16"/>
    </edge>
    <edge id="94" from="9" to="10" priority="1" spreadType="center" length="85.85">
        <lane id="94_0" index="0" disallow="rail_fast" speed="36.11" length="85.85" width="2.50" customShape="1" shape="-27.10,95.30 -16.69,53.66 -6.70,13.69"/>
    </edge>
    <edge id="95" from="11" to="12" priority="1" spreadType="center" length="85.82">
        <lane id="95_0" index="0" disallow="rail_fast" speed="36.11" length="85.82" width="2.50" customShape="1" shape="-4.28,14.34 -14.27,54.27 -24.68,95.91"/>
    </edge>
    <edge id="96" from="8" to="3" priority="1" spreadType="center" length="9.99">
        <lane id="96_0" index="0" disallow="bus truck rail_fast" speed="36.11" length="9.99" width="2.50" customShape="1" shape="0.25,4.37 0.43,4.46"/>
    </edge>
    <edge id="97" from="2" to="5" priority="1" spreadType="center" length="13.91">
        <lane id="97_0" index="0" disallow="bus truck rail_fast" speed="36.11" length="13.91" width="2.50" customShape="1" shape="-1.50,5.68 -1.59,5.50"/>
    </edge>
    <edge id="98" from="10" to="3" priority="1" spreadType="center" length="13.73">
        <lane id="98_0" index="0" disallow="bus truck rail_fast" speed="36.11" length="13.73" width="2.50" customShape="1" shape="-1.48,5.72 -1.28,5.71"/>
    </edge>
    <edge id="99" from="2" to="11" priority="1" spreadType="center" length="9.67">
        <lane id="99_0" index="0" disallow="bus truck rail_fast" speed="36.11" length="9.67" width="2.50" customShape="1" shape="-1.41,7.94 -1.52,8.11"/>
    </edge>

    <junction id="1" type="dead_end" x="171.63" y="53.56" incLanes="" intLanes="" shape="171.96,52.35 171.31,54.76"/>
    <junction id="10" type="priority" x="-6.28" y="12.02" incLanes="94_0" intLanes=":10_0_0 :10_1_0" shape="1.50,6.91 -1.66,4.69 -2.45,4.76 -2.69,4.64 -2.82,4.43 -2.85,4.11 -2.78,3.69 -5.20,3.05 -7.91,13.39 -5.48,13.99 -4.76,11.66 -3.85,9.79 -2.78,8.38 -1.53,7.43 -0.10,6.94">
        <request index="0" response="00" foes="00" cont="0"/>
        <request index="1" response="00" foes="00" cont="0"/>
    </junction>
    <junction id="11" type="priority" x="-3.86" y="12.65" incLanes="99_0 101_0" intLanes=":11_0_0 :11_1_0" shape="3.70,9.90 0.55,6.89 -0.30,6.77 -0.56,6.59 -0.71,6.32 -0.75,5.97 -0.68,5.53 -3.10,4.89 -5.49,14.03 -3.07,14.64">
        <request index="0" response="00" foes="10" cont="0"/>
        <request index="1" response="01" foes="01" cont="0"/>
    </junction>
    <junction id="12" type="dead_end" x="-24.68" y="95.91" incLanes="95_0" intLanes="" shape="-23.47,96.21 -25.89,95.61"/>
    <junction id="2" type="priority" x="3.32" y="8.52" incLanes="90_0" intLanes=":2_0_0 :2_1_0" shape="4.60,10.20 5.30,7.80 1.92,6.53 0.67,5.81 -0.29,5.03 -0.96,4.20 -1.33,3.30 -2.63,6.09 -2.26,6.78 -2.25,7.14 -2.35,7.50 -2.57,7.87 -2.90,8.25 -2.42,12.20 -1.14,10.32 -0.10,9.84 1.20,9.66 2.77,9.78">
        <request index="0" response="00" foes="00" cont="0"/>
        <request index="1" response="00" foes="00" cont="0"/>
    </junction>
    <junction id="3" type="priority" x="4.03" y="6.13" incLanes="96_0 98_0" intLanes=":3_0_0 :3_1_0" shape="5.39,7.83 6.09,5.43 3.01,4.07 1.97,3.20 1.28,2.20 0.92,1.07 0.90,-0.19 -1.40,2.85 -1.38,3.65 -1.51,4.00 -1.73,4.33 -2.04,4.63 -2.37,4.88 -2.74,8.03 -0.93,7.13 0.31,6.99 1.78,7.06 3.47,7.34">
        <request index="0" response="00" foes="10" cont="0"/>
        <request index="1" response="01" foes="01" cont="0"/>
    </junction>
    <junction id="4" type="dead_end" x="172.28" y="51.14" incLanes="91_0" intLanes="" shape="172.61,49.94 171.96,52.35"/>
    <junction id="5" type="priority" x="-2.48" y="-2.26" incLanes="97_0 100_0" intLanes=":5_0_0 :5_1_0" shape="-2.27,6.50 1.40,6.36 -0.79,4.27 -1.35,2.78 -1.54,0.98 -1.37,-1.11 -0.84,-3.51 -3.24,-4.18 -5.99,6.06 -3.59,6.74 -3.29,6.12 -3.08,6.01 -2.85,6.04 -2.58,6.20">
        <request index="0" response="10" foes="10" cont="0"/>
        <request index="1" response="00" foes="01" cont="0"/>
    </junction>
    <junction id="6" type="dead_end" x="20.45" y="-83.92" incLanes="92_0" intLanes="" shape="19.25,-84.26 21.65,-83.59"/>
    <junction id="7" type="dead_end" x="22.86" y="-83.25" incLanes="" intLanes="" shape="21.65,-83.59 24.06,-82.91"/>
    <junction id="8" type="priority" x="-0.07" y="-1.60" incLanes="93_0" intLanes=":8_0_0 :8_1_0" shape="0.67,5.83 4.75,5.06 1.57,-2.82 -0.84,-3.50 -3.28,5.58 -0.87,6.25 -0.55,5.62 -0.32,5.49 -0.03,5.48 0.29,5.59">
        <request index="0" response="00" foes="00" cont="0"/>
        <request index="1" response="00" foes="00" cont="0"/>
    </junction>
    <junction id="9" type="dead_end" x="-27.10" y="95.30" incLanes="" intLanes="" shape="-25.89,95.61 -28.32,95.00"/>

    <connection from="100" to="92" fromLane="0" toLane="0" contPos="-4.00" via=":5_1_0" dir="s" state="M"/>
    <connection from="101" to="95" fromLane="0" toLane="0" contPos="-4.00" via=":11_1_0" dir="s" state="m"/>
    <connection from="90" to="99" fromLane="0" toLane="0" contPos="-4.00" via=":2_0_0" dir="r" state="M"/>
    <connection from="90" to="97" fromLane="0" toLane="0" contPos="-4.00" via=":2_1_0" dir="l" state="M"/>
    <connection from="93" to="96" fromLane="0" toLane="0" contPos="-4.00" via=":8_0_0" dir="R" state="M"/>
    <connection from="93" to="101" fromLane="0" toLane="0" contPos="-4.00" via=":8_1_0" dir="s" state="M"/>
    <connection from="94" to="100" fromLane="0" toLane="0" contPos="-4.00" via=":10_0_0" dir="s" state="M"/>
    <connection from="94" to="98" fromLane="0" toLane="0" contPos="-4.00" via=":10_1_0" dir="l" state="M"/>
    <connection from="96" to="91" fromLane="0" toLane="0" contPos="-4.00" via=":3_0_0" dir="r" state="M"/>
    <connection from="97" to="92" fromLane="0" toLane="0" contPos="-4.00" via=":5_0_0" dir="s" state="m"/>
    <connection from="98" to="91" fromLane="0" toLane="0" contPos="-4.00" via=":3_1_0" dir="l" state="m"/>
    <connection from="99" to="95" fromLane="0" toLane="0" contPos="-4.00" via=":11_0_0" dir="r" state="M"/>

    <connection from=":10_0" to="100" fromLane="0" toLane="0" dir="s" state="M"/>
    <connection from=":10_1" to="98" fromLane="0" toLane="0" dir="l" state="M"/>
    <connection from=":11_0" to="95" fromLane="0" toLane="0" dir="r" state="M"/>
    <connection from=":11_1" to="95" fromLane="0" toLane="0" dir="s" state="M"/>
    <connection from=":2_0" to="99" fromLane="0" toLane="0" dir="r" state="M"/>
    <connection from=":2_1" to="97" fromLane="0" toLane="0" dir="l" state="M"/>
    <connection from=":3_0" to="91" fromLane="0" toLane="0" dir="r" state="M"/>
    <connection from=":3_1" to="91" fromLane="0" toLane="0" dir="l" state="M"/>
    <connection from=":5_0" to="92" fromLane="0" toLane="0" dir="s" state="M"/>
    <connection from=":5_1" to="92" fromLane="0" toLane="0" dir="s" state="M"/>
    <connection from=":8_0" to="96" fromLane="0" toLane="0" dir="R" state="M"/>
    <connection from=":8_1" to="101" fromLane="0" toLane="0" dir="s" state="M"/>

</net>
