<!-- generated on 2020-12-18 17:01:49.775903 by ipykernel_launcher.py v1_2_0+5214-53edc58fcd
-->
<edges>
	<edge from="1" function="normal" id="90" length="174.23692041725667" numLanes="1" priority="1" speed="36.11111111111111" spreadType="center" to="2">
		<lane allow="moped bicycle pedestrian custom1 trailer evehicle rail_urban ship private truck vip custom2 authority delivery rail_electric taxi tram army hov coach motorcycle passenger bus rail emergency" index="0" length="174.23692041725667" shape="171.6318,53.55695 144.97255,46.34795 77.9356,28.81205 48.27435,21.1719 27.9097,15.69285 3.32395,8.52495" speed="36.11111111111111" width="2.4999267529269718"/>
	</edge>
	<edge from="3" function="normal" id="91" length="174.17946390829968" numLanes="1" priority="1" speed="36.11111111111111" spreadType="center" to="4">
		<lane allow="moped bicycle pedestrian custom1 trailer evehicle rail_urban ship private truck vip custom2 authority delivery rail_electric taxi tram army hov coach motorcycle passenger bus rail emergency" index="0" length="174.17946390829968" shape="4.0309,6.1282499999999995 28.5965,13.289100000000001 48.93885,18.7616 78.59094999999999,26.39935 145.62405,43.93429999999999 172.28379999999999,51.14345" speed="36.11111111111111" width="2.4974668466267977"/>
	</edge>
	<edge from="5" function="normal" id="92" length="84.82324308750347" numLanes="1" priority="1" speed="36.11111111111111" spreadType="center" to="6">
		<lane allow="moped bicycle pedestrian custom1 trailer evehicle rail_urban ship private truck vip custom2 authority delivery rail_electric taxi tram army hov coach motorcycle passenger bus rail emergency" index="0" length="84.82324308750347" shape="-2.4843,-2.25935 8.98575,-43.102199999999996 20.45035,-83.92320000000001" speed="36.11111111111111" width="2.5000076499882953"/>
	</edge>
	<edge from="7" function="normal" id="93" length="84.80157872712398" numLanes="1" priority="1" speed="36.11111111111111" spreadType="center" to="8">
		<lane allow="moped bicycle pedestrian custom1 trailer evehicle rail_urban ship private truck vip custom2 authority delivery rail_electric taxi tram army hov coach motorcycle passenger bus rail emergency" index="0" length="84.80157872712398" shape="22.8572,-83.24725000000001 11.39265,-42.4262 -0.07209999999999994,-1.6044" speed="36.11111111111111" width="2.499280064338529"/>
	</edge>
	<edge from="9" function="normal" id="94" length="85.84680646434273" numLanes="1" priority="1" speed="36.11111111111111" spreadType="center" to="10">
		<lane allow="moped bicycle pedestrian custom1 trailer evehicle rail_urban ship private truck vip custom2 authority delivery rail_electric taxi tram army hov coach motorcycle passenger bus rail emergency" index="0" length="85.84680646434273" shape="-27.10445,95.30395 -16.691200000000002,53.661950000000004 -6.2783999999999995,12.0216" speed="36.11111111111111" width="2.4993556369592547"/>
	</edge>
	<edge from="11" function="normal" id="95" length="85.81960606360568" numLanes="1" priority="1" speed="36.11111111111111" spreadType="center" to="12">
		<lane allow="moped bicycle pedestrian custom1 trailer evehicle rail_urban ship private truck vip custom2 authority delivery rail_electric taxi tram army hov coach motorcycle passenger bus rail emergency" index="0" length="85.81960606360568" shape="-3.8602499999999997,12.65435 -14.26585,54.26845 -24.67915,95.91045" speed="36.11111111111111" width="2.4999844679517502"/>
	</edge>
	<edge from="8" function="normal" id="96" length="9.993904824436843" numLanes="1" priority="1" speed="36.11111111111111" spreadType="center" to="3">
		<lane allow="moped bicycle pedestrian custom1 trailer evehicle rail_urban ship private vip custom2 authority delivery rail_electric taxi tram army hov coach motorcycle passenger rail emergency" index="0" length="9.993904824436843" shape="-0.07209999999999994,-1.6044 -0.31760000000000005,-0.5207 -0.44225000000000003,0.5837 -0.3973,1.69345 -0.13864999999999994,2.7727000000000004 0.3678,3.75985 1.1009499999999999,4.5924000000000005 1.9939500000000001,5.2521 2.9851,5.75445 4.0309,6.1282499999999995" speed="36.11111111111111" width="2.4974668466267977"/>
	</edge>
	<edge from="2" function="normal" id="97" length="13.914419467340485" numLanes="1" priority="1" speed="36.11111111111111" spreadType="center" to="5">
		<lane allow="moped bicycle pedestrian custom1 trailer evehicle rail_urban ship private vip custom2 authority delivery rail_electric taxi tram army hov coach motorcycle passenger rail emergency" index="0" length="13.914419467340485" shape="3.32395,8.52495 1.9297999999999997,8.0267 0.5780500000000001,7.341049999999999 -0.6823,6.4094 -1.7526,5.19755 -2.5071,3.7477 -2.8928,2.1909 -2.96325,0.6427499999999999 -2.8011000000000004,-0.8494 -2.4843,-2.25935" speed="36.11111111111111" width="2.5000076499882953"/>
	</edge>
	<edge from="10" function="normal" id="98" length="13.732460571982756" numLanes="1" priority="1" speed="36.11111111111111" spreadType="center" to="3">
		<lane allow="moped bicycle pedestrian custom1 trailer evehicle rail_urban ship private vip custom2 authority delivery rail_electric taxi tram army hov coach motorcycle passenger rail emergency" index="0" length="13.732460571982756" shape="-6.2783999999999995,12.0216 -5.8321000000000005,10.5583 -5.21385,9.16175 -4.37725,7.88575 -3.2879500000000004,6.8205 -1.96605,6.06545 -0.49485,5.66885 1.0291,5.5953 2.5461,5.772349999999999 4.0309,6.1282499999999995" speed="36.11111111111111" width="2.4974668466267977"/>
	</edge>
	<edge from="2" function="normal" id="99" length="9.670082107487982" numLanes="1" priority="1" speed="36.11111111111111" spreadType="center" to="11">
		<lane allow="moped bicycle pedestrian custom1 trailer evehicle rail_urban ship private vip custom2 authority delivery rail_electric taxi tram army hov coach motorcycle passenger rail emergency" index="0" length="9.670082107487982" shape="3.32395,8.52495 2.19935,8.2546 1.0904,8.12045 0.03185000000000002,8.16635 -0.93525,8.420350000000001 -1.7819,8.90405 -2.49295,9.60745 -3.0679499999999997,10.49575 -3.5174,11.52025 -3.8602499999999997,12.65435" speed="36.11111111111111" width="2.5001186091863725"/>
	</edge>
	<edge from="10" function="normal" id="100" length="14.776467354880499" numLanes="1" priority="1" speed="36.11111111111111" spreadType="center" to="5">
		<lane allow="moped bicycle pedestrian custom1 trailer evehicle rail_urban ship private vip custom2 authority delivery rail_electric taxi tram army hov coach motorcycle passenger rail emergency" index="0" length="14.776467354880499" shape="-6.2783999999999995,12.0216 -2.7853499999999998,-1.1849500000000002 -2.4843,-2.25935" speed="36.11111111111111" width="2.4993556369592547"/>
	</edge>
	<edge from="8" function="normal" id="101" length="14.753477513899725" numLanes="1" priority="1" speed="36.11111111111111" spreadType="center" to="11">
		<lane allow="moped bicycle pedestrian custom1 trailer evehicle rail_urban ship private vip custom2 authority delivery rail_electric taxi tram army hov coach motorcycle passenger rail emergency" index="0" length="14.753477513899725" shape="-0.07209999999999994,-1.6044 -0.37499999999999994,-0.5215000000000001 -3.8602499999999997,12.65435" speed="36.11111111111111" width="2.499280064338529"/>
	</edge>
</edges>
