<routes>
	<vehicle depart="0.1" departLane="0" departPos="3.415917235022537" departSpeed="0.47390323" id="315" type="bicycle">
		<route edges="52550 54894"/>
	</vehicle>
	<vehicle depart="0.1" departLane="0" departPos="1.0" departSpeed="6.8997048" id="337" type="bicycle">
		<route edges="54894 52152 54918"/>
	</vehicle>
	<vehicle depart="0.1" departLane="0" departPos="19.93213820291975" departSpeed="1.455587" id="32" type="passenger">
		<route edges="54720 52106 52098 54245 52540 54251"/>
	</vehicle>
	<vehicle depart="0.1" departLane="0" departPos="12.781137906174147" departSpeed="0.63791841" id="35" type="passenger">
		<route edges=":28_3 54405"/>
	</vehicle>
	<vehicle depart="0.1" departLane="1" departPos="2.5" departSpeed="9.3150426" id="37" type="passenger">
		<route edges="52154 52162 54245"/>
	</vehicle>
	<vehicle depart="0.1" departLane="0" departPos="9.93371681203094" departSpeed="1.6741954" id="313" type="passenger">
		<route edges="52550 54894"/>
	</vehicle>
	<vehicle depart="0.1" departLane="0" departPos="21.49686644414207" departSpeed="0.55790421" id="318" type="passenger">
		<route edges="52542 52550 54894"/>
	</vehicle>
	<vehicle depart="0.1" departLane="0" departPos="2.5" departSpeed="1.0398944" id="320" type="passenger">
		<route edges=":28_3 54405 52108 54412"/>
	</vehicle>
	<vehicle depart="0.1" departLane="0" departPos="21.723152711350338" departSpeed="14.356575" id="340" type="passenger">
		<route edges=":28_5 54894 52152 54918"/>
	</vehicle>
	<vehicle depart="0.1" departLane="0" departPos="14.2565358355234" departSpeed="1.1183989" id="30" type="truck">
		<route edges=":28_4 54245 52540 54251"/>
	</vehicle>
</routes>
