<routes>
	<vehicle depart="0.1" departLane="0" departPos="6.34411921110504" departSpeed="1.5540088" id="317" type="bicycle">
		<route edges=":28_5 2037"/>
	</vehicle>
	<vehicle depart="0.1" departLane="0" departPos="30.181573984867004" departSpeed="1.4423977" id="326" type="bicycle">
		<route edges="2089 2037"/>
	</vehicle>
	<vehicle depart="0.1" departLane="0" departPos="57.419975719125716" departSpeed="0.0" id="30" type="passenger">
		<route edges="2038 2088"/>
	</vehicle>
	<vehicle depart="0.1" departLane="0" departPos="13.51871873520946" departSpeed="8.6415443" id="33" type="passenger">
		<route edges=":28_5 2037"/>
	</vehicle>
	<vehicle depart="0.1" departLane="0" departPos="15.126633918786265" departSpeed="6.1903806" id="34" type="passenger">
		<route edges=":28_4 3519 1677"/>
	</vehicle>
	<vehicle depart="0.1" departLane="0" departPos="57.588387295165354" departSpeed="4.4953449" id="39" type="passenger">
		<route edges="2089 3519"/>
	</vehicle>
	<vehicle depart="0.1" departLane="0" departPos="13.795025475979543" departSpeed="3.8403596" id="324" type="passenger">
		<route edges="2089 2037"/>
	</vehicle>
	<vehicle depart="0.1" departLane="0" departPos="31.368542475688475" departSpeed="2.9167571" id="333" type="passenger">
		<route edges="2089 2037"/>
	</vehicle>
	<vehicle depart="0.1" departLane="0" departPos="67.42164720068567" departSpeed="0.0" id="38" type="truck">
		<route edges="2038 2088"/>
	</vehicle>
</routes>
