<routes>
	<vehicle depart="0.1" departLane="0" departPos="22.25761504704073" departSpeed="16.43463" id="313" type="passenger">
		<route edges="34763 34766"/>
	</vehicle>
	<vehicle depart="0.1" departLane="0" departPos="30.776393855991607" departSpeed="0.51195225" id="356" type="passenger">
		<route edges=":81_1 34980"/>
	</vehicle>
</routes>
