<routes>
	<vehicle depart="0.1" departLane="0" departPos="8.879411439541563" departSpeed="0.072543165" id="381" type="passenger">
		<route edges=":238_0 5664"/>
	</vehicle>
	<vehicle depart="0.1" departLane="0" departPos="29.596509755319715" departSpeed="14.188031" id="3149" type="passenger">
		<route edges=":247_5 6051 5668"/>
	</vehicle>
</routes>
