<routes>
	<vehicle depart="0.1" departLane="0" departPos="54.24714921708527" departSpeed="0.0" id="35" type="passenger">
		<route edges="41061 41194"/>
	</vehicle>
	<vehicle depart="0.1" departLane="0" departPos="10.202434546765943" departSpeed="12.403512" id="310" type="passenger">
		<route edges=":74_0 41093"/>
	</vehicle>
	<vehicle depart="0.1" departLane="0" departPos="9.979179627621843" departSpeed="0.00012224981" id="375" type="passenger">
		<route edges="41094 41131"/>
	</vehicle>
	<vehicle depart="0.1" departLane="0" departPos="31.290002823186853" departSpeed="6.7609804" id="379" type="passenger">
		<route edges=":80_5 41194 41143"/>
	</vehicle>
	<vehicle depart="0.1" departLane="0" departPos="46.74622035350079" departSpeed="0.0" id="332" type="motorcycle">
		<route edges="41061 41194"/>
	</vehicle>
	<vehicle depart="0.1" departLane="0" departPos="30.99218618901857" departSpeed="7.3010514" id="371" type="truck">
		<route edges="41194 41143"/>
	</vehicle>
	<vehicle depart="0.1" departLane="0" departPos="7.41737617535333" departSpeed="8.9990946" id="383" type="truck">
		<route edges=":80_2 41194"/>
	</vehicle>
	<vehicle depart="0.1" departLane="0" departPos="52.022575780862354" departSpeed="7.7353367" id="391" type="truck">
		<route edges="41197 41062"/>
	</vehicle>
</routes>
