<routes>
	<vehicle depart="0.1" departLane="0" departPos="62.15727825402003" departSpeed="0.0" id="31" type="passenger">
		<route edges="45059 44770"/>
	</vehicle>
	<vehicle depart="0.1" departLane="0" departPos="54.69757704031112" departSpeed="0.0" id="315" type="passenger">
		<route edges="45059 44770"/>
	</vehicle>
	<vehicle depart="0.1" departLane="0" departPos="69.53777945448778" departSpeed="0.0" id="320" type="passenger">
		<route edges="45059 44770"/>
	</vehicle>
	<vehicle depart="0.1" departLane="0" departPos="47.306585874499376" departSpeed="9.8382968e-05" id="330" type="passenger">
		<route edges="45059 44770"/>
	</vehicle>
	<vehicle depart="0.1" departLane="0" departPos="39.899537541376134" departSpeed="0.00090476296" id="332" type="passenger">
		<route edges="45059 44770"/>
	</vehicle>
	<vehicle depart="0.1" departLane="0" departPos="32.39757057934585" departSpeed="0.0052871739" id="336" type="passenger">
		<route edges="45059 44770"/>
	</vehicle>
	<vehicle depart="0.1" departLane="0" departPos="24.876855370188878" departSpeed="0.021387149" id="339" type="passenger">
		<route edges="45059 44770"/>
	</vehicle>
	<vehicle depart="0.1" departLane="0" departPos="60.450979589202355" departSpeed="7.9150387" id="347" type="passenger">
		<route edges="44771 44774"/>
	</vehicle>
	<vehicle depart="0.1" departLane="0" departPos="36.21454843819087" departSpeed="9.8460609" id="351" type="passenger">
		<route edges="44771 45060"/>
	</vehicle>
	<vehicle depart="0.1" departLane="0" departPos="15.782964562156634" departSpeed="4.9848544" id="354" type="passenger">
		<route edges="44771 44774"/>
	</vehicle>
</routes>
