<routes>
	<vehicle depart="0.1" departLane="0" departPos="1.0" departSpeed="2.8647853" id="327" type="bicycle">
		<route edges=":53_3 517 538"/>
	</vehicle>
	<vehicle depart="0.1" departLane="0" departPos="1.0" departSpeed="2.7385439" id="337" type="bicycle">
		<route edges=":53_3 517 538"/>
	</vehicle>
	<vehicle depart="0.1" departLane="0" departPos="14.862807476351655" departSpeed="4.4432008" id="384" type="bicycle">
		<route edges="515 518 562"/>
	</vehicle>
	<vehicle depart="0.1" departLane="0" departPos="27.385838684474457" departSpeed="2.0332499" id="347" type="bus">
		<route edges="22 19"/>
	</vehicle>
	<vehicle depart="0.1" departLane="0" departPos="50.80199520863078" departSpeed="0.88459327" id="355" type="bus">
		<route edges="518 562"/>
	</vehicle>
	<vehicle depart="0.1" departLane="0" departPos="77.24852643983573" departSpeed="12.886508" id="367" type="bus">
		<route edges="556 578"/>
	</vehicle>
	<vehicle depart="0.1" departLane="0" departPos="79.98414520103304" departSpeed="0.0" id="35" type="passenger">
		<route edges="517 514"/>
	</vehicle>
	<vehicle depart="0.1" departLane="0" departPos="58.81066169884033" departSpeed="0.079789212" id="37" type="passenger">
		<route edges="518 562"/>
	</vehicle>
	<vehicle depart="0.1" departLane="0" departPos="72.59234367442775" departSpeed="0.17915215" id="39" type="passenger">
		<route edges="517 514"/>
	</vehicle>
	<vehicle depart="0.1" departLane="0" departPos="153.96858221544153" departSpeed="0.3405099" id="310" type="passenger">
		<route edges="556 578 23"/>
	</vehicle>
	<vehicle depart="0.1" departLane="0" departPos="56.01138234666922" departSpeed="2.0570425" id="311" type="passenger">
		<route edges="25 626"/>
	</vehicle>
	<vehicle depart="0.1" departLane="0" departPos="42.00954756848898" departSpeed="3.1612364" id="312" type="passenger">
		<route edges="23 26"/>
	</vehicle>
	<vehicle depart="0.1" departLane="0" departPos="38.60227636981939" departSpeed="0.0" id="313" type="passenger">
		<route edges="20 579"/>
	</vehicle>
	<vehicle depart="0.1" departLane="0" departPos="47.42848115027446" departSpeed="1.3448563" id="316" type="passenger">
		<route edges="25 626"/>
	</vehicle>
	<vehicle depart="0.1" departLane="0" departPos="69.94136868693637" departSpeed="15.076392" id="318" type="passenger">
		<route edges="555 415"/>
	</vehicle>
	<vehicle depart="0.1" departLane="0" departPos="79.96969810581535" departSpeed="0.0" id="320" type="passenger">
		<route edges="518 562"/>
	</vehicle>
	<vehicle depart="0.1" departLane="0" departPos="9.935409313980557" departSpeed="4.0670172" id="321" type="passenger">
		<route edges=":55_0 22 19"/>
	</vehicle>
	<vehicle depart="0.1" departLane="0" departPos="8.193141015960064" departSpeed="4.1556323" id="322" type="passenger">
		<route edges=":55_5 26"/>
	</vehicle>
	<vehicle depart="0.1" departLane="0" departPos="161.57646064576124" departSpeed="0.76434701" id="323" type="passenger">
		<route edges="556 559 517 538"/>
	</vehicle>
	<vehicle depart="0.1" departLane="0" departPos="145.72462675763623" departSpeed="0.88761908" id="328" type="passenger">
		<route edges="556 559"/>
	</vehicle>
	<vehicle depart="0.1" departLane="0" departPos="10.870962402675227" departSpeed="9.6007514" id="329" type="passenger">
		<route edges="555 415"/>
	</vehicle>
	<vehicle depart="0.1" departLane="0" departPos="45.103530334029045" departSpeed="3.6890042" id="332" type="passenger">
		<route edges="22 19"/>
	</vehicle>
	<vehicle depart="0.1" departLane="0" departPos="134.91579232267853" departSpeed="2.7496928" id="333" type="passenger">
		<route edges="556 578"/>
	</vehicle>
	<vehicle depart="0.1" departLane="0" departPos="72.89610807048517" departSpeed="0.00022553069" id="334" type="passenger">
		<route edges="518 562"/>
	</vehicle>
	<vehicle depart="0.1" departLane="0" departPos="31.502268360914123" departSpeed="0.0" id="336" type="passenger">
		<route edges="20 579"/>
	</vehicle>
	<vehicle depart="0.1" departLane="0" departPos="35.9545976635808" departSpeed="2.8043364" id="338" type="passenger">
		<route edges="22 19"/>
	</vehicle>
	<vehicle depart="0.1" departLane="0" departPos="65.88892841518114" departSpeed="0.0034152424" id="341" type="passenger">
		<route edges="518 562"/>
	</vehicle>
	<vehicle depart="0.1" departLane="0" departPos="120.50075015249429" departSpeed="5.4161306" id="343" type="passenger">
		<route edges="556 578"/>
	</vehicle>
	<vehicle depart="0.1" departLane="0" departPos="65.94362900312606" departSpeed="2.1027264" id="345" type="passenger">
		<route edges="561 558 555"/>
	</vehicle>
	<vehicle depart="0.1" departLane="0" departPos="20.14680194827607" departSpeed="5.636506e-05" id="346" type="passenger">
		<route edges="20 579"/>
	</vehicle>
	<vehicle depart="0.1" departLane="0" departPos="57.783141484147684" departSpeed="1.451435" id="351" type="passenger">
		<route edges="561 517"/>
	</vehicle>
	<vehicle depart="0.1" departLane="0" departPos="12.511983578168248" departSpeed="2.0418729" id="353" type="passenger">
		<route edges="22 19"/>
	</vehicle>
	<vehicle depart="0.1" departLane="0" departPos="49.69631656412044" departSpeed="0.97154717" id="356" type="passenger">
		<route edges="561 517"/>
	</vehicle>
	<vehicle depart="0.1" departLane="0" departPos="2.5" departSpeed="2.6754271" id="358" type="passenger">
		<route edges="22 19"/>
	</vehicle>
	<vehicle depart="0.1" departLane="0" departPos="41.82763871602677" departSpeed="0.72766669" id="362" type="passenger">
		<route edges="561 517"/>
	</vehicle>
	<vehicle depart="0.1" departLane="0" departPos="70.09658170736982" departSpeed="0.46529289" id="363" type="passenger">
		<route edges="625 22"/>
	</vehicle>
	<vehicle depart="0.1" departLane="0" departPos="8.094963361344856" departSpeed="0.0016035708" id="364" type="passenger">
		<route edges="20 579"/>
	</vehicle>
	<vehicle depart="0.1" departLane="0" departPos="48.70470587929958" departSpeed="13.292851" id="370" type="passenger">
		<route edges="556 578"/>
	</vehicle>
	<vehicle depart="0.1" departLane="0" departPos="33.846719366733154" departSpeed="0.82795221" id="371" type="passenger">
		<route edges="561 517"/>
	</vehicle>
	<vehicle depart="0.1" departLane="0" departPos="60.785392012196134" departSpeed="2.1694204" id="372" type="passenger">
		<route edges="625 22"/>
	</vehicle>
	<vehicle depart="0.1" departLane="0" departPos="20.760425415431456" departSpeed="5.3941726" id="375" type="passenger">
		<route edges="518 562"/>
	</vehicle>
	<vehicle depart="0.1" departLane="0" departPos="25.750502896596238" departSpeed="1.2801006" id="377" type="passenger">
		<route edges="561 517"/>
	</vehicle>
	<vehicle depart="0.1" departLane="0" departPos="47.223596139898675" departSpeed="5.0684604" id="378" type="passenger">
		<route edges="625 22"/>
	</vehicle>
	<vehicle depart="0.1" departLane="0" departPos="2.5" departSpeed="7.9306106" id="380" type="passenger">
		<route edges="518 562"/>
	</vehicle>
	<vehicle depart="0.1" departLane="0" departPos="31.064908326974482" departSpeed="7.0757246" id="383" type="passenger">
		<route edges="625 22"/>
	</vehicle>
	<vehicle depart="0.1" departLane="0" departPos="15.607324951492187" departSpeed="5.5908272" id="387" type="passenger">
		<route edges="625 22"/>
	</vehicle>
	<vehicle depart="0.1" departLane="0" departPos="6.732773944600177" departSpeed="1.5408251" id="389" type="passenger">
		<route edges="561 517"/>
	</vehicle>
	<vehicle depart="0.1" departLane="0" departPos="24.603914991317264" departSpeed="0.0" id="339" type="motorcycle">
		<route edges="20 579"/>
	</vehicle>
	<vehicle depart="0.1" departLane="0" departPos="13.042880206885643" departSpeed="0.00034436156" id="352" type="motorcycle">
		<route edges="20 579"/>
	</vehicle>
	<vehicle depart="0.1" departLane="0" departPos="32.37775819355462" departSpeed="3.0709873" id="369" type="motorcycle">
		<route edges="518 562"/>
	</vehicle>
	<vehicle depart="0.1" departLane="0" departPos="67.6162285594785" departSpeed="2.7880844" id="324" type="truck">
		<route edges="25 626"/>
	</vehicle>
	<vehicle depart="0.1" departLane="0" departPos="39.22665944401512" departSpeed="0.79550957" id="335" type="truck">
		<route edges="25 626"/>
	</vehicle>
	<vehicle depart="0.1" departLane="0" departPos="17.276295285109782" departSpeed="1.8079019" id="385" type="truck">
		<route edges="561 517"/>
	</vehicle>
</routes>
