<?xml version="1.0" encoding="UTF-8"?>

<!-- generated on Fri Dec 18 16:52:28 2020 by Eclipse SUMO netconvert Version 1.8.0
<configuration xmlns:xsi="http://www.w3.org/2001/XMLSchema-instance" xsi:noNamespaceSchemaLocation="http://sumo.dlr.de/xsd/netconvertConfiguration.xsd">

    <input>
        <node-files value="./converted_scenarios/SUMO/CHN_Sha-11_3_I-1-1/nodes.net.xml"/>
        <edge-files value="./converted_scenarios/SUMO/CHN_Sha-11_3_I-1-1/edges.net.xml"/>
        <connection-files value="./converted_scenarios/SUMO/CHN_Sha-11_3_I-1-1/_connections.net.xml"/>
        <tllogic-files value="./converted_scenarios/SUMO/CHN_Sha-11_3_I-1-1/_tll.net.xml"/>
    </input>

    <output>
        <output-file value="./converted_scenarios/SUMO/CHN_Sha-11_3_I-1-1/CHN_Sha-11_3_I-1-1.net.xml"/>
    </output>

    <processing>
        <plain.extend-edge-shape value="true"/>
        <geometry.remove.keep-edges.explicit value="true"/>
        <geometry.avoid-overlap value="true"/>
        <offset.disable-normalization value="true"/>
    </processing>

    <junctions>
        <no-turnarounds value="true"/>
        <junctions.internal-link-detail value="20"/>
    </junctions>

    <report>
        <aggregate-warnings value="5"/>
    </report>

    <random_number>
        <seed value="1234"/>
    </random_number>

</configuration>
-->

<net version="1.6" junctionCornerDetail="5" junctionLinkDetail="20" limitTurnSpeed="5.50" xmlns:xsi="http://www.w3.org/2001/XMLSchema-instance" xsi:noNamespaceSchemaLocation="http://sumo.dlr.de/xsd/net_file.xsd">

    <location netOffset="0.00,0.00" convBoundary="-117.24,-212.57,303.68,181.98" origBoundary="-117.54,-212.57,304.08,182.43" projParameter="!"/>

    <edge id=":1_0" function="internal">
        <lane id=":1_0_0" index="0" disallow="bus truck rail_fast" speed="36.11" length="10.06" width="2.50" shape="12.12,53.48 12.42,52.90 12.70,52.38 12.95,51.90 13.17,51.47 13.38,51.07 13.56,50.71 13.73,50.36 13.89,50.03 14.03,49.71 14.17,49.39 14.29,49.06 14.42,48.72 14.54,48.35 14.65,47.96 14.78,47.53 14.90,47.06 15.03,46.54 15.18,45.97 15.33,45.33"/>
        <lane id=":1_0_1" index="1" disallow="bus truck rail_fast" speed="13.36" length="10.06" width="2.50" shape="12.47,55.52 13.09,54.97 13.64,54.46 14.13,53.99 14.57,53.55 14.95,53.13 15.29,52.73 15.59,52.34 15.85,51.95 16.08,51.55 16.29,51.15 16.47,50.72 16.64,50.28 16.80,49.80 16.94,49.28 17.09,48.72 17.24,48.11 17.40,47.44 17.57,46.70 17.76,45.90"/>
    </edge>
    <edge id=":1_2" function="internal">
        <lane id=":1_2_0" index="0" disallow="bus truck rail_fast" speed="36.11" length="13.44" width="2.50" shape="12.68,58.53 15.33,45.33"/>
        <lane id=":1_2_1" index="1" disallow="bus truck rail_fast" speed="36.11" length="13.44" width="2.50" shape="15.12,59.06 17.76,45.90"/>
    </edge>
    <edge id=":12_0" function="internal">
        <lane id=":12_0_0" index="0" disallow="bus truck rail_fast" speed="36.11" length="2.83" width="2.50" shape="-102.83,12.49 -103.42,15.26"/>
    </edge>
    <edge id=":14_0" function="internal">
        <lane id=":14_0_0" index="0" disallow="bus truck rail_fast" speed="6.13" length="6.28" width="2.50" shape="48.11,-0.61 47.58,-0.81 47.07,-0.99 46.58,-1.15 46.12,-1.30 45.68,-1.43 45.27,-1.55 44.88,-1.64 44.52,-1.72 44.18,-1.79 43.86,-1.84 43.57,-1.87 43.31,-1.88 43.06,-1.88 42.84,-1.86 42.65,-1.83 42.48,-1.77 42.33,-1.71 42.21,-1.62 42.11,-1.52"/>
    </edge>
    <edge id=":14_1" function="internal">
        <lane id=":14_1_0" index="0" disallow="bus truck rail_fast" speed="11.69" length="8.27" width="2.50" shape="48.11,-0.61 47.54,-0.82 47.02,-1.00 46.53,-1.15 46.09,-1.29 45.67,-1.42 45.29,-1.54 44.93,-1.66 44.59,-1.78 44.27,-1.90 43.97,-2.04 43.67,-2.20 43.39,-2.39 43.10,-2.60 42.81,-2.84 42.52,-3.12 42.22,-3.45 41.91,-3.83 41.58,-4.26 41.23,-4.74"/>
    </edge>
    <edge id=":15_0" function="internal">
        <lane id=":15_0_0" index="0" disallow="bus truck rail_fast" speed="4.48" length="8.04" width="2.50" shape="42.13,-6.86 49.13,-2.90"/>
    </edge>
    <edge id=":15_1" function="internal">
        <lane id=":15_1_0" index="0" disallow="bus truck rail_fast" speed="14.17" length="8.30" width="2.50" shape="41.14,-4.49 41.75,-4.56 42.30,-4.62 42.79,-4.65 43.24,-4.67 43.66,-4.66 44.04,-4.64 44.39,-4.60 44.73,-4.55 45.06,-4.48 45.38,-4.39 45.70,-4.28 46.03,-4.16 46.38,-4.02 46.74,-3.87 47.14,-3.70 47.57,-3.52 48.04,-3.33 48.55,-3.12 49.13,-2.90"/>
    </edge>
    <edge id=":18_0" function="internal">
        <lane id=":18_0_0" index="0" disallow="bus truck rail_fast" speed="5.92" length="6.85" width="2.50" shape="23.72,81.87 23.54,81.80 23.30,81.70 23.00,81.57 22.66,81.42 22.29,81.26 21.88,81.09 21.45,80.91 21.01,80.73 20.56,80.55 20.11,80.38 19.66,80.22 19.24,80.09 18.83,79.97 18.46,79.88 18.12,79.82 17.83,79.79 17.59,79.81 17.42,79.88 17.31,79.99"/>
    </edge>
    <edge id=":18_1" function="internal">
        <lane id=":18_1_0" index="0" disallow="bus truck rail_fast" speed="7.22" length="7.84" width="2.50" shape="24.57,79.52 23.89,79.27 23.23,79.04 22.61,78.83 22.02,78.63 21.46,78.46 20.94,78.30 20.45,78.16 19.99,78.04 19.56,77.94 19.16,77.86 18.80,77.79 18.47,77.74 18.17,77.72 17.90,77.71 17.67,77.71 17.46,77.74 17.29,77.79 17.15,77.85 17.05,77.93"/>
    </edge>
    <edge id=":18_2" function="internal">
        <lane id=":18_2_0" index="0" disallow="bus truck rail_fast" speed="16.64" length="9.71" width="2.50" shape="24.57,79.52 23.90,79.28 23.28,79.07 22.71,78.89 22.19,78.74 21.70,78.60 21.26,78.47 20.84,78.35 20.44,78.23 20.07,78.10 19.70,77.96 19.34,77.80 18.99,77.62 18.63,77.40 18.26,77.16 17.88,76.87 17.47,76.53 17.04,76.14 16.58,75.70 16.08,75.19"/>
    </edge>
    <edge id=":19_0" function="internal">
        <lane id=":19_0_0" index="0" disallow="bus truck rail_fast" speed="9.41" length="11.88" width="2.50" shape="54.89,-41.18 54.58,-41.56 54.29,-41.97 54.03,-42.40 53.81,-42.85 53.61,-43.33 53.45,-43.83 53.32,-44.35 53.22,-44.90 53.15,-45.48 53.10,-46.07 53.10,-46.69 53.12,-47.34 53.17,-48.01 53.25,-48.70 53.37,-49.42 53.51,-50.16 53.69,-50.92 53.89,-51.71 54.13,-52.52"/>
    </edge>
    <edge id=":19_1" function="internal">
        <lane id=":19_1_0" index="0" disallow="bus truck rail_fast" speed="36.11" length="10.68" width="2.50" shape="48.51,-43.10 51.74,-53.25"/>
        <lane id=":19_1_1" index="1" disallow="bus truck rail_fast" speed="36.11" length="10.68" width="2.50" shape="50.88,-42.31 54.13,-52.52"/>
    </edge>
    <edge id=":2_0" function="internal">
        <lane id=":2_0_0" index="0" disallow="bus truck rail_fast" speed="36.11" length="10.85" width="2.50" shape="30.93,2.93 34.95,-7.15"/>
        <lane id=":2_0_1" index="1" disallow="bus truck rail_fast" speed="36.11" length="10.85" width="2.50" shape="33.25,3.86 37.27,-6.22"/>
    </edge>
    <edge id=":2_2" function="internal">
        <lane id=":2_2_0" index="0" disallow="bus truck rail_fast" speed="9.25" length="11.93" width="2.50" shape="33.25,3.86 33.57,3.07 33.91,2.32 34.25,1.61 34.61,0.93 34.97,0.30 35.34,-0.30 35.72,-0.85 36.11,-1.37 36.51,-1.85 36.92,-2.29 37.34,-2.69 37.77,-3.05 38.20,-3.37 38.65,-3.65 39.10,-3.89 39.56,-4.09 40.04,-4.26 40.52,-4.38 41.01,-4.47"/>
    </edge>
    <edge id=":20_0" function="internal">
        <lane id=":20_0_0" index="0" disallow="bus truck rail_fast" speed="7.35" length="9.09" width="2.50" shape="52.29,-55.07 52.54,-55.88 52.76,-56.65 52.97,-57.39 53.15,-58.08 53.31,-58.74 53.45,-59.35 53.57,-59.93 53.67,-60.47 53.75,-60.97 53.81,-61.43 53.85,-61.86 53.87,-62.24 53.87,-62.59 53.85,-62.90 53.81,-63.17 53.75,-63.40 53.66,-63.59 53.56,-63.74 53.44,-63.86"/>
    </edge>
    <edge id=":20_1" function="internal">
        <lane id=":20_1_0" index="0" disallow="rail_fast" speed="36.11" length="10.76" width="2.50" shape="52.29,-55.07 55.41,-65.37"/>
        <lane id=":20_1_1" index="1" disallow="rail_fast" speed="36.11" length="10.76" width="2.50" shape="54.69,-54.34 57.80,-64.64"/>
    </edge>
    <edge id=":21_0" function="internal">
        <lane id=":21_0_0" index="0" disallow="rail_fast" speed="36.11" length="10.49" width="2.50" shape="62.45,-62.74 59.41,-52.69"/>
        <lane id=":21_0_1" index="1" disallow="rail_fast" speed="36.11" length="10.49" width="2.50" shape="60.06,-63.46 57.02,-53.42"/>
    </edge>
    <edge id=":21_2" function="internal">
        <lane id=":21_2_0" index="0" disallow="bus truck rail_fast" speed="10.03" length="11.66" width="2.50" shape="56.21,-64.63 56.51,-64.19 56.78,-63.73 57.02,-63.26 57.24,-62.76 57.42,-62.26 57.58,-61.73 57.71,-61.19 57.80,-60.63 57.88,-60.06 57.92,-59.47 57.93,-58.86 57.92,-58.24 57.87,-57.60 57.80,-56.94 57.70,-56.27 57.57,-55.58 57.42,-54.88 57.23,-54.16 57.02,-53.42"/>
    </edge>
    <edge id=":22_0" function="internal">
        <lane id=":22_0_0" index="0" disallow="bus truck rail_fast" speed="6.93" length="9.07" width="2.50" shape="58.83,-50.79 58.58,-49.96 58.35,-49.17 58.14,-48.42 57.95,-47.72 57.79,-47.05 57.64,-46.43 57.51,-45.84 57.41,-45.30 57.33,-44.80 57.26,-44.34 57.22,-43.92 57.20,-43.54 57.20,-43.21 57.22,-42.91 57.26,-42.65 57.33,-42.44 57.41,-42.26 57.51,-42.13 57.64,-42.04"/>
    </edge>
    <edge id=":22_1" function="internal">
        <lane id=":22_1_0" index="0" disallow="bus truck rail_fast" speed="36.11" length="10.50" width="2.50" shape="58.83,-50.79 55.64,-40.77"/>
        <lane id=":22_1_1" index="1" disallow="bus truck rail_fast" speed="36.11" length="10.50" width="2.50" shape="56.44,-51.52 53.26,-41.52"/>
    </edge>
    <edge id=":23_0" function="internal">
        <lane id=":23_0_0" index="0" disallow="bus truck rail_fast" speed="36.11" length="6.18" width="2.50" shape="57.81,-41.94 58.22,-41.73 58.59,-41.53 58.92,-41.35 59.22,-41.19 59.50,-41.04 59.75,-40.91 59.99,-40.79 60.22,-40.67 60.44,-40.57 60.67,-40.47 60.90,-40.37 61.13,-40.28 61.39,-40.19 61.66,-40.09 61.95,-40.00 62.28,-39.89 62.64,-39.79 63.04,-39.67 63.48,-39.54"/>
    </edge>
    <edge id=":23_1" function="internal">
        <lane id=":23_1_0" index="0" disallow="bus truck rail_fast" speed="17.61" length="8.94" width="2.50" shape="54.75,-40.71 55.41,-40.80 56.00,-40.87 56.53,-40.92 57.02,-40.96 57.47,-40.97 57.88,-40.96 58.27,-40.94 58.63,-40.90 58.99,-40.85 59.34,-40.78 59.69,-40.70 60.05,-40.60 60.43,-40.48 60.84,-40.36 61.27,-40.22 61.75,-40.06 62.27,-39.90 62.84,-39.73 63.48,-39.54"/>
    </edge>
    <edge id=":26_0" function="internal">
        <lane id=":26_0_0" index="0" disallow="bus truck rail_fast" speed="6.32" length="6.17" width="2.50" shape="62.17,-37.32 61.63,-37.47 61.11,-37.60 60.63,-37.73 60.16,-37.84 59.72,-37.93 59.31,-38.02 58.92,-38.08 58.56,-38.14 58.22,-38.18 57.90,-38.21 57.61,-38.22 57.35,-38.22 57.11,-38.21 56.89,-38.18 56.70,-38.14 56.54,-38.09 56.40,-38.02 56.28,-37.94 56.19,-37.85"/>
    </edge>
    <edge id=":26_1" function="internal">
        <lane id=":26_1_0" index="0" disallow="bus truck rail_fast" speed="12.24" length="7.93" width="2.50" shape="62.17,-37.32 61.60,-37.47 61.09,-37.61 60.62,-37.72 60.18,-37.83 59.78,-37.93 59.41,-38.02 59.07,-38.11 58.74,-38.21 58.44,-38.31 58.14,-38.43 57.85,-38.56 57.56,-38.72 57.27,-38.90 56.98,-39.12 56.67,-39.36 56.35,-39.65 56.01,-39.98 55.65,-40.35 55.26,-40.78"/>
    </edge>
    <edge id=":27_0" function="internal">
        <lane id=":27_0_0" index="0" disallow="bus truck rail_fast" speed="7.23" length="9.49" width="2.50" shape="-103.50,15.80 -103.49,16.30 -103.44,16.79 -103.36,17.25 -103.25,17.70 -103.10,18.12 -102.92,18.53 -102.71,18.92 -102.46,19.29 -102.19,19.65 -101.87,19.98 -101.53,20.29 -101.15,20.59 -100.74,20.87 -100.29,21.13 -99.81,21.37 -99.30,21.59 -98.76,21.80 -98.18,21.98 -97.57,22.15"/>
    </edge>
    <edge id=":27_1" function="internal">
        <lane id=":27_1_0" index="0" disallow="bus truck rail_fast" speed="36.11" length="8.72" width="2.50" shape="-106.04,20.05 -97.57,22.15"/>
        <lane id=":27_1_1" index="1" disallow="bus truck rail_fast" speed="36.11" length="8.72" width="2.50" shape="-106.64,22.48 -98.18,24.57"/>
    </edge>
    <edge id=":28_0" function="internal">
        <lane id=":28_0_0" index="0" disallow="bus truck rail_fast" speed="5.87" length="6.45" width="2.50" shape="5.89,52.32 6.07,52.38 6.30,52.46 6.59,52.57 6.91,52.68 7.27,52.81 7.66,52.95 8.07,53.09 8.49,53.23 8.92,53.37 9.35,53.50 9.77,53.62 10.18,53.72 10.56,53.80 10.92,53.86 11.24,53.89 11.52,53.89 11.75,53.85 11.92,53.78 12.02,53.66"/>
    </edge>
    <edge id=":28_1" function="internal">
        <lane id=":28_1_0" index="0" disallow="bus truck rail_fast" speed="7.51" length="7.43" width="2.50" shape="5.12,54.69 5.74,54.89 6.34,55.07 6.91,55.24 7.45,55.39 7.97,55.52 8.46,55.64 8.92,55.74 9.35,55.82 9.76,55.88 10.14,55.93 10.49,55.97 10.81,55.99 11.11,55.99 11.38,55.97 11.62,55.94 11.84,55.89 12.03,55.83 12.19,55.74 12.32,55.65"/>
    </edge>
    <edge id=":28_2" function="internal">
        <lane id=":28_2_0" index="0" disallow="bus truck rail_fast" speed="16.46" length="9.47" width="2.50" shape="5.12,54.69 5.79,54.90 6.40,55.08 6.96,55.23 7.48,55.36 7.95,55.48 8.39,55.58 8.81,55.68 9.20,55.79 9.57,55.90 9.93,56.02 10.28,56.16 10.64,56.32 11.00,56.51 11.37,56.74 11.75,57.00 12.16,57.31 12.59,57.67 13.06,58.09 13.57,58.57"/>
    </edge>
    <edge id=":3_0" function="internal">
        <lane id=":3_0_0" index="0" disallow="bus truck rail_fast" speed="36.11" length="7.79" width="2.50" shape="41.99,-1.36 41.64,-0.90 41.31,-0.49 41.02,-0.11 40.76,0.23 40.52,0.54 40.30,0.83 40.10,1.11 39.92,1.38 39.75,1.64 39.59,1.90 39.44,2.17 39.28,2.46 39.13,2.76 38.98,3.09 38.82,3.45 38.65,3.84 38.47,4.28 38.27,4.76 38.05,5.30"/>
    </edge>
    <edge id=":3_1" function="internal">
        <lane id=":3_1_0" index="0" disallow="bus truck rail_fast" speed="36.11" length="10.36" width="2.50" shape="41.90,-4.32 38.05,5.30"/>
        <lane id=":3_1_1" index="1" disallow="bus truck rail_fast" speed="36.11" length="10.36" width="2.50" shape="39.58,-5.25 35.73,4.38"/>
    </edge>
    <edge id=":30_0" function="internal">
        <lane id=":30_0_0" index="0" disallow="bus truck rail_fast" speed="5.60" length="6.06" width="2.50" shape="49.27,-69.35 49.79,-69.12 50.29,-68.90 50.76,-68.71 51.20,-68.53 51.63,-68.37 52.02,-68.23 52.40,-68.11 52.75,-68.00 53.07,-67.92 53.37,-67.85 53.64,-67.80 53.89,-67.77 54.12,-67.76 54.32,-67.76 54.49,-67.78 54.64,-67.83 54.77,-67.89 54.87,-67.97 54.95,-68.06"/>
    </edge>
    <edge id=":30_1" function="internal">
        <lane id=":30_1_0" index="0" disallow="bus truck rail_fast" speed="21.60" length="7.54" width="2.50" shape="49.27,-69.35 49.78,-69.12 50.24,-68.92 50.66,-68.73 51.05,-68.57 51.40,-68.41 51.72,-68.26 52.02,-68.12 52.30,-67.98 52.57,-67.84 52.83,-67.69 53.08,-67.53 53.34,-67.35 53.60,-67.16 53.88,-66.94 54.16,-66.69 54.47,-66.42 54.81,-66.11 55.18,-65.76 55.58,-65.37"/>
    </edge>
    <edge id=":31_0" function="internal">
        <lane id=":31_0_0" index="0" disallow="bus truck rail_fast" speed="36.11" length="6.95" width="2.50" shape="53.27,-63.97 52.85,-64.27 52.47,-64.55 52.12,-64.79 51.81,-65.01 51.52,-65.22 51.26,-65.40 51.01,-65.57 50.77,-65.73 50.53,-65.88 50.30,-66.02 50.06,-66.16 49.81,-66.30 49.54,-66.44 49.25,-66.59 48.94,-66.74 48.59,-66.91 48.21,-67.09 47.78,-67.28 47.31,-67.50"/>
    </edge>
    <edge id=":31_1" function="internal">
        <lane id=":31_1_0" index="0" disallow="bus truck rail_fast" speed="12.79" length="9.63" width="2.50" shape="56.39,-65.27 55.70,-65.16 55.07,-65.09 54.50,-65.04 53.99,-65.02 53.51,-65.02 53.07,-65.06 52.67,-65.12 52.28,-65.20 51.90,-65.31 51.54,-65.44 51.17,-65.59 50.79,-65.76 50.40,-65.96 49.99,-66.17 49.54,-66.40 49.06,-66.65 48.53,-66.92 47.95,-67.20 47.31,-67.50"/>
    </edge>
    <edge id=":33_0" function="internal">
        <lane id=":33_0_0" index="0" disallow="bus truck rail_fast" speed="9.78" length="12.12" width="2.50" shape="41.12,-4.91 40.84,-5.34 40.60,-5.79 40.39,-6.26 40.21,-6.75 40.06,-7.26 39.95,-7.79 39.87,-8.34 39.82,-8.91 39.80,-9.50 39.82,-10.12 39.86,-10.75 39.94,-11.40 40.05,-12.08 40.20,-12.77 40.37,-13.49 40.58,-14.22 40.82,-14.98 41.09,-15.75 41.40,-16.55"/>
    </edge>
    <edge id=":33_1" function="internal">
        <lane id=":33_1_0" index="0" disallow="bus truck rail_fast" speed="36.11" length="10.92" width="2.50" shape="35.02,-7.33 39.07,-17.47"/>
        <lane id=":33_1_1" index="1" disallow="bus truck rail_fast" speed="36.11" length="10.92" width="2.50" shape="37.35,-6.40 41.40,-16.55"/>
    </edge>
    <edge id=":34_0" function="internal">
        <lane id=":34_0_0" index="0" disallow="bus truck rail_fast" speed="36.11" length="10.21" width="2.50" shape="45.15,-33.29 48.45,-42.91"/>
        <lane id=":34_0_1" index="1" disallow="bus truck rail_fast" speed="36.11" length="10.21" width="2.50" shape="47.49,-32.42 50.82,-42.12"/>
    </edge>
    <edge id=":34_2" function="internal">
        <lane id=":34_2_0" index="0" disallow="bus truck rail_fast" speed="9.03" length="11.45" width="2.50" shape="47.49,-32.42 47.80,-33.21 48.11,-33.96 48.44,-34.67 48.77,-35.33 49.10,-35.97 49.45,-36.56 49.80,-37.11 50.16,-37.62 50.53,-38.10 50.91,-38.53 51.29,-38.93 51.69,-39.29 52.09,-39.61 52.49,-39.88 52.91,-40.13 53.33,-40.33 53.77,-40.49 54.21,-40.61 54.65,-40.70"/>
    </edge>
    <edge id=":35_0" function="internal">
        <lane id=":35_0_0" index="0" disallow="bus truck rail_fast" speed="33.27" length="7.71" width="2.50" shape="56.07,-37.69 55.72,-37.24 55.40,-36.83 55.11,-36.45 54.86,-36.11 54.62,-35.80 54.42,-35.51 54.22,-35.23 54.05,-34.96 53.89,-34.70 53.74,-34.43 53.59,-34.16 53.45,-33.87 53.31,-33.57 53.17,-33.24 53.02,-32.88 52.86,-32.48 52.69,-32.04 52.51,-31.56 52.31,-31.02"/>
    </edge>
    <edge id=":35_1" function="internal">
        <lane id=":35_1_0" index="0" disallow="bus truck rail_fast" speed="36.11" length="10.13" width="2.50" shape="55.60,-40.64 52.31,-31.02"/>
        <lane id=":35_1_1" index="1" disallow="bus truck rail_fast" speed="36.11" length="10.13" width="2.50" shape="53.23,-41.42 49.96,-31.87"/>
    </edge>
    <edge id=":36_0" function="internal">
        <lane id=":36_0_0" index="0" disallow="bus truck rail_fast" speed="7.68" length="11.15" width="2.50" shape="45.97,-14.53 45.66,-13.70 45.37,-12.89 45.13,-12.12 44.92,-11.38 44.74,-10.68 44.61,-10.00 44.51,-9.36 44.45,-8.75 44.42,-8.18 44.43,-7.63 44.48,-7.12 44.57,-6.64 44.69,-6.19 44.85,-5.77 45.04,-5.39 45.28,-5.04 45.55,-4.72 45.85,-4.43 46.20,-4.18"/>
    </edge>
    <edge id=":36_1" function="internal">
        <lane id=":36_1_0" index="0" disallow="bus truck rail_fast" speed="36.11" length="10.83" width="2.50" shape="45.97,-14.53 41.96,-4.47"/>
        <lane id=":36_1_1" index="1" disallow="bus truck rail_fast" speed="36.11" length="10.83" width="2.50" shape="43.65,-15.45 39.63,-5.39"/>
    </edge>
    <edge id=":37_0" function="internal">
        <lane id=":37_0_0" index="0" disallow="bus truck rail_fast" speed="8.75" length="9.26" width="2.50" shape="15.94,75.04 15.61,74.68 15.31,74.30 15.03,73.92 14.77,73.53 14.53,73.12 14.32,72.71 14.13,72.29 13.97,71.86 13.83,71.41 13.71,70.96 13.62,70.50 13.55,70.02 13.51,69.54 13.49,69.05 13.49,68.55 13.52,68.04 13.57,67.51 13.64,66.98 13.74,66.44"/>
    </edge>
    <edge id=":37_1" function="internal">
        <lane id=":37_1_0" index="0" disallow="bus truck rail_fast" speed="36.11" length="9.35" width="2.50" shape="9.37,75.10 11.29,65.95"/>
        <lane id=":37_1_1" index="1" disallow="bus truck rail_fast" speed="36.11" length="9.35" width="2.50" shape="11.82,75.60 13.74,66.44"/>
    </edge>
    <edge id=":38_0" function="internal">
        <lane id=":38_0_0" index="0" disallow="bus truck rail_fast" speed="36.11" length="2.57" width="2.50" shape="11.33,65.76 11.81,63.24"/>
        <lane id=":38_0_1" index="1" disallow="bus truck rail_fast" speed="36.11" length="2.57" width="2.50" shape="13.78,66.24 14.26,63.71"/>
    </edge>
    <edge id=":39_0" function="internal">
        <lane id=":39_0_0" index="0" disallow="bus truck rail_fast" speed="36.11" length="9.37" width="2.50" shape="20.32,58.45 18.59,67.67"/>
        <lane id=":39_0_1" index="1" disallow="bus truck rail_fast" speed="36.11" length="9.37" width="2.50" shape="17.87,57.98 16.14,67.18"/>
    </edge>
    <edge id=":39_2" function="internal">
        <lane id=":39_2_0" index="0" disallow="bus truck rail_fast" speed="8.50" length="9.23" width="2.50" shape="13.71,58.71 14.06,59.06 14.39,59.43 14.69,59.81 14.97,60.19 15.22,60.59 15.45,61.00 15.65,61.41 15.83,61.84 15.98,62.28 16.11,62.72 16.21,63.18 16.29,63.64 16.34,64.12 16.37,64.60 16.38,65.10 16.35,65.60 16.31,66.12 16.24,66.64 16.14,67.18"/>
    </edge>
    <edge id=":4_0" function="internal">
        <lane id=":4_0_0" index="0" disallow="bus truck rail_fast" speed="36.11" length="2.99" width="2.50" shape="22.63,47.04 21.99,49.95"/>
        <lane id=":4_0_1" index="1" disallow="bus truck rail_fast" speed="36.11" length="2.99" width="2.50" shape="20.20,46.48 19.54,49.42"/>
    </edge>
    <edge id=":40_0" function="internal">
        <lane id=":40_0_0" index="0" disallow="bus truck rail_fast" speed="36.11" length="2.55" width="2.50" shape="18.55,67.87 18.04,70.37"/>
        <lane id=":40_0_1" index="1" disallow="bus truck rail_fast" speed="36.11" length="2.55" width="2.50" shape="16.10,67.37 15.59,69.87"/>
    </edge>
    <edge id=":41_0" function="internal">
        <lane id=":41_0_0" index="0" disallow="bus truck rail_fast" speed="36.11" length="8.55" width="2.50" shape="55.05,-68.23 55.38,-68.78 55.68,-69.27 55.95,-69.72 56.20,-70.12 56.42,-70.49 56.62,-70.84 56.80,-71.16 56.97,-71.47 57.13,-71.78 57.27,-72.08 57.41,-72.40 57.55,-72.72 57.68,-73.07 57.81,-73.45 57.95,-73.85 58.09,-74.30 58.25,-74.80 58.41,-75.35 58.59,-75.96"/>
    </edge>
    <edge id=":41_1" function="internal">
        <lane id=":41_1_0" index="0" disallow="bus truck rail_fast" speed="36.11" length="10.98" width="2.50" shape="55.44,-65.46 58.59,-75.96"/>
        <lane id=":41_1_1" index="1" disallow="bus truck rail_fast" speed="36.11" length="10.98" width="2.50" shape="57.83,-64.74 60.99,-75.27"/>
    </edge>
    <edge id=":44_0" function="internal">
        <lane id=":44_0_0" index="0" disallow="bus truck rail_fast" speed="36.11" length="11.88" width="2.50" shape="65.92,-74.32 62.51,-62.93"/>
        <lane id=":44_0_1" index="1" disallow="bus truck rail_fast" speed="36.11" length="11.88" width="2.50" shape="63.52,-75.02 60.11,-63.65"/>
    </edge>
    <edge id=":44_2" function="internal">
        <lane id=":44_2_0" index="0" disallow="bus truck rail_fast" speed="9.13" length="12.52" width="2.50" shape="63.52,-75.02 63.24,-74.10 62.96,-73.22 62.66,-72.39 62.35,-71.60 62.03,-70.86 61.71,-70.17 61.37,-69.52 61.03,-68.92 60.67,-68.36 60.31,-67.85 59.93,-67.38 59.55,-66.96 59.15,-66.59 58.75,-66.26 58.34,-65.98 57.92,-65.74 57.48,-65.55 57.04,-65.40 56.59,-65.30"/>
    </edge>
    <edge id=":46_0" function="internal">
        <lane id=":46_0_0" index="0" disallow="bus truck rail_fast" speed="7.17" length="10.21" width="2.50" shape="-115.23,17.79 -114.49,17.96 -113.78,18.10 -113.10,18.20 -112.45,18.27 -111.83,18.31 -111.24,18.31 -110.68,18.28 -110.15,18.21 -109.65,18.11 -109.18,17.98 -108.74,17.81 -108.33,17.61 -107.95,17.38 -107.61,17.11 -107.29,16.81 -107.00,16.47 -106.74,16.10 -106.52,15.70 -106.32,15.26"/>
    </edge>
    <edge id=":46_1" function="internal">
        <lane id=":46_1_0" index="0" disallow="rail_fast" speed="36.11" length="9.26" width="2.50" shape="-115.23,17.79 -106.24,20.01"/>
        <lane id=":46_1_1" index="1" disallow="rail_fast" speed="36.11" length="9.26" width="2.50" shape="-115.82,20.22 -106.83,22.43"/>
    </edge>
    <edge id=":6_0" function="internal">
        <lane id=":6_0_0" index="0" disallow="bus truck rail_fast" speed="36.11" length="2.95" width="2.50" shape="6.60,86.11 7.39,83.29"/>
        <lane id=":6_0_1" index="1" disallow="bus truck rail_fast" speed="36.11" length="2.95" width="2.50" shape="9.00,86.81 9.81,83.94"/>
    </edge>
    <edge id=":7_0" function="internal">
        <lane id=":7_0_0" index="0" disallow="bus truck rail_fast" speed="36.11" length="9.95" width="2.50" shape="17.22,80.17 16.92,80.75 16.65,81.28 16.41,81.76 16.18,82.19 15.98,82.58 15.80,82.95 15.62,83.29 15.47,83.61 15.32,83.93 15.18,84.25 15.04,84.57 14.90,84.91 14.77,85.26 14.63,85.65 14.48,86.06 14.33,86.52 14.17,87.03 13.99,87.60 13.80,88.22"/>
        <lane id=":7_0_1" index="1" disallow="bus truck rail_fast" speed="16.81" length="9.95" width="2.50" shape="16.91,78.08 16.33,78.66 15.82,79.20 15.35,79.69 14.94,80.14 14.57,80.56 14.24,80.96 13.94,81.35 13.67,81.73 13.43,82.11 13.21,82.49 13.00,82.89 12.81,83.31 12.62,83.76 12.44,84.25 12.26,84.79 12.06,85.37 11.86,86.02 11.64,86.73 11.40,87.51"/>
    </edge>
    <edge id=":7_2" function="internal">
        <lane id=":7_2_0" index="0" disallow="bus truck rail_fast" speed="36.11" length="13.34" width="2.50" shape="17.02,75.25 13.80,88.22"/>
        <lane id=":7_2_1" index="1" disallow="bus truck rail_fast" speed="36.11" length="13.34" width="2.50" shape="14.61,74.59 11.40,87.51"/>
    </edge>
    <edge id=":9_0" function="internal">
        <lane id=":9_0_0" index="0" disallow="bus truck rail_fast" speed="36.11" length="3.11" width="2.50" shape="-106.11,14.73 -106.02,14.51 -105.94,14.32 -105.88,14.14 -105.82,13.98 -105.76,13.84 -105.72,13.70 -105.67,13.57 -105.64,13.45 -105.60,13.33 -105.57,13.21 -105.54,13.09 -105.51,12.97 -105.48,12.83 -105.44,12.69 -105.41,12.54 -105.37,12.37 -105.32,12.19 -105.27,11.99 -105.22,11.76"/>
    </edge>

    <edge id="627" from="1" to="2" priority="1" spreadType="center" length="48.27">
        <lane id="627_0" index="0" disallow="bus truck rail_fast" speed="36.11" length="48.27" width="2.50" customShape="1" shape="15.33,45.33 15.69,43.83 17.23,38.41 19.92,30.67 30.93,2.93"/>
        <lane id="627_1" index="1" disallow="bus truck rail_fast" speed="36.11" length="48.27" width="2.50" customShape="1" shape="17.76,45.90 18.11,44.46 19.62,39.13 22.29,31.48 33.25,3.86"/>
    </edge>
    <edge id="630" from="3" to="4" priority="1" spreadType="center" length="47.47">
        <lane id="630_0" index="0" disallow="bus truck rail_fast" speed="36.11" length="47.47" width="2.50" customShape="1" shape="38.05,5.30 27.13,32.81 24.49,40.32 22.98,45.56 22.63,47.04"/>
        <lane id="630_1" index="1" disallow="bus truck rail_fast" speed="36.11" length="47.47" width="2.50" customShape="1" shape="35.73,4.38 24.71,32.14 22.06,39.72 20.54,45.01 20.20,46.48"/>
    </edge>
    <edge id="631" from="5" to="6" priority="1" spreadType="center" length="101.27">
        <lane id="631_0" index="0" disallow="bus truck rail_fast" speed="36.11" length="101.27" width="2.50" customShape="1" shape="-27.93,179.73 -17.19,152.16 -10.03,133.43 -0.67,108.02 4.55,92.85 6.60,86.11"/>
        <lane id="631_1" index="1" disallow="bus truck rail_fast" speed="36.11" length="101.27" width="2.50" customShape="1" shape="-25.60,180.63 -14.85,153.03 -7.67,134.26 1.71,108.79 6.95,93.56 9.00,86.81"/>
    </edge>
    <edge id="634" from="7" to="8" priority="1" spreadType="center" length="101.75">
        <lane id="634_0" index="0" disallow="bus truck rail_fast" speed="36.11" length="101.75" width="2.50" customShape="1" shape="13.80,88.22 11.74,95.00 6.48,110.28 -2.93,135.86 -10.14,154.71 -20.94,182.44"/>
        <lane id="634_1" index="1" disallow="bus truck rail_fast" speed="36.11" length="101.75" width="2.50" customShape="1" shape="11.40,87.51 9.34,94.28 4.09,109.54 -5.30,135.06 -12.49,153.87 -23.27,181.53"/>
    </edge>
    <edge id="635" from="9" to="10" priority="1" spreadType="center" length="228.82">
        <lane id="635_0" index="0" disallow="bus truck rail_fast" speed="36.11" length="228.82" width="2.50" customShape="1" shape="-105.22,11.76 -103.08,3.05 -99.31,-13.55 -95.72,-31.21 -92.33,-49.93 -88.98,-70.69 -85.43,-95.48 -76.32,-165.99 -73.19,-188.80 -69.60,-212.57"/>
    </edge>
    <edge id="636" from="11" to="12" priority="1" spreadType="center" length="229.04">
        <lane id="636_0" index="0" disallow="bus truck rail_fast" speed="36.11" length="229.04" width="2.50" customShape="1" shape="-67.13,-212.18 -70.72,-188.42 -73.85,-165.60 -82.96,-95.05 -86.52,-70.24 -89.88,-49.45 -93.28,-30.69 -96.88,-12.99 -100.65,3.64 -102.83,12.49"/>
    </edge>
    <edge id="637" from="13" to="14" priority="1" spreadType="center" length="174.52">
        <lane id="637_0" index="0" disallow="bus truck rail_fast" speed="36.11" length="174.52" width="2.50" customShape="1" shape="209.73,60.11 192.77,53.91 48.11,-0.61"/>
    </edge>
    <edge id="638" from="15" to="16" priority="1" spreadType="center" length="174.49">
        <lane id="638_0" index="0" disallow="bus truck rail_fast" speed="36.11" length="174.49" width="2.50" customShape="1" shape="49.13,-2.90 193.64,51.57 210.59,57.76"/>
    </edge>
    <edge id="640" from="17" to="18" priority="1" spreadType="center" length="297.33">
        <lane id="640_0" index="0" disallow="bus truck rail_fast" speed="36.11" length="297.33" width="2.50" customShape="1" shape="303.27,176.99 190.38,138.22 168.66,130.50 156.81,126.45 48.75,90.59 24.11,82.01 23.72,81.87"/>
        <lane id="640_1" index="1" disallow="bus truck rail_fast" speed="36.11" length="297.33" width="2.50" customShape="1" shape="304.08,174.63 191.22,135.86 169.49,128.14 157.62,124.09 49.60,88.24 24.97,79.67 24.57,79.52"/>
    </edge>
    <edge id="641" from="19" to="20" priority="1" spreadType="center" length="5.28">
        <lane id="641_0" index="0" disallow="rail_fast" speed="36.11" length="5.28" width="2.50" customShape="1" shape="51.74,-53.25 51.97,-54.02 52.29,-55.07"/>
        <lane id="641_1" index="1" disallow="rail_fast" speed="36.11" length="5.28" width="2.50" customShape="1" shape="54.13,-52.52 54.36,-53.29 54.69,-54.34"/>
    </edge>
    <edge id="644" from="21" to="22" priority="1" spreadType="center" length="5.27">