<routes>
	<vehicle depart="0.1" departLane="1" departPos="48.26735740693633" departSpeed="1.3331" id="31" type="passenger">
		<route edges="627 671 638"/>
	</vehicle>
	<vehicle depart="0.1" departLane="0" departPos="216.679585417369" departSpeed="8.7976" id="33" type="passenger">
		<route edges="646 702 654 682 638"/>
	</vehicle>
	<vehicle depart="0.1" departLane="0" departPos="0" departSpeed="0.0" id="34" type="passenger">
		<route edges="671 638"/>
	</vehicle>
	<vehicle depart="0.1" departLane="0" departPos="0" departSpeed="13.1031" id="35" type="passenger">
		<route edges="651 683 683 705 645"/>
	</vehicle>
	<vehicle depart="0.1" departLane="0" departPos="0" departSpeed="13.3091" id="36" type="passenger">
		<route edges="630 673 658 676 634"/>
	</vehicle>
	<vehicle depart="0.1" departLane="0" departPos="0" departSpeed="12.4443" id="37" type="passenger">
		<route edges="646 702 654 682 638"/>
	</vehicle>
	<vehicle depart="0.1" departLane="0" departPos="49.15000116365826" departSpeed="15.8583" id="38" type="passenger">
		<route edges="659"/>
	</vehicle>
	<vehicle depart="0.1" departLane="0" departPos="65.4189457422912" departSpeed="0.0002" id="39" type="passenger">
		<route edges="662 699 699 704 650"/>
	</vehicle>
	<vehicle depart="0.1" departLane="1" departPos="0" departSpeed="11.0905" id="310" type="passenger">
		<route edges="648 692 658 676 634"/>
	</vehicle>
	<vehicle depart="0.1" departLane="0" departPos="57.902521567866614" departSpeed="0.0014" id="311" type="passenger">
		<route edges="662 699 699 704 650"/>
	</vehicle>
	<vehicle depart="0.1" departLane="1" departPos="48.26735740693633" departSpeed="0.3607" id="312" type="passenger">
		<route edges="627 671 638"/>
	</vehicle>
	<vehicle depart="0.1" departLane="0" departPos="229.03880873644033" departSpeed="5.7922" id="314" type="passenger">
		<route edges="636 691 648 668 627 701 651 683 641 698 650"/>
	</vehicle>
	<vehicle depart="0.1" departLane="0" departPos="6.473369638437028" departSpeed="6.4917" id="315" type="passenger">
		<route edges="680 630 673 658 676 706 634"/>
	</vehicle>
	<vehicle depart="0.1" departLane="0" departPos="82.9533111654645" departSpeed="0.0" id="316" type="passenger">
		<route edges="662 699 699 704 650"/>
	</vehicle>
	<vehicle depart="0.1" departLane="1" departPos="279.1529921500519" departSpeed="5.7145" id="317" type="passenger">
		<route edges="640 706 634"/>
	</vehicle>
	<vehicle depart="0.1" departLane="0" departPos="50.3774011297106" departSpeed="0.007" id="318" type="passenger">
		<route edges="662 699 699 704 650"/>
	</vehicle>
	<vehicle depart="0.1" departLane="1" departPos="297.3268368021098" departSpeed="0.0" id="319" type="passenger">
		<route edges="640 706 634"/>
	</vehicle>
	<vehicle depart="0.1" departLane="0" departPos="0" departSpeed="0.0" id="320" type="passenger">
		<route edges="662 699 644 666 654 689 630 673 658 676"/>
	</vehicle>
	<vehicle depart="0.1" departLane="1" departPos="255.0941817338625" departSpeed="10.0159" id="321" type="passenger">
		<route edges="640 706 634"/>
	</vehicle>
	<vehicle depart="0.1" departLane="1" departPos="233.41126273649314" departSpeed="11.3" id="324" type="passenger">
		<route edges="640 706 634"/>
	</vehicle>
	<vehicle depart="0.1" departLane="0" departPos="228.81960658768344" departSpeed="12.9699" id="325" type="passenger">
		<route edges="635"/>
	</vehicle>
	<vehicle depart="0.1" departLane="0" departPos="6.234761240565897" departSpeed="10.6101" id="326" type="passenger">
		<route edges="705 645"/>
	</vehicle>
	<vehicle depart="0.1" departLane="0" departPos="7.631840246500408" departSpeed="7.1707" id="327" type="passenger">
		<route edges="702 654 682 638"/>
	</vehicle>
	<vehicle depart="0.1" departLane="0" departPos="191.36711681051133" departSpeed="8.9288" id="328" type="passenger">
		<route edges="636 691 685 685 648 692 658 676 634"/>
	</vehicle>
	<vehicle depart="0.1" departLane="0" departPos="179.47983120862492" departSpeed="11.4675" id="330" type="passenger">
		<route edges="635"/>
	</vehicle>
	<vehicle depart="0.1" departLane="0" departPos="72.9355387332334" departSpeed="0.0" id="331" type="passenger">
		<route edges="662 699 699 704 650"/>
	</vehicle>
	<vehicle depart="0.1" departLane="0" departPos="171.44425083932757" departSpeed="10.104" id="332" type="passenger">
		<route edges="636 691 648 668 627 701 651 683 641 698 650"/>
	</vehicle>
	<vehicle depart="0.1" departLane="1" departPos="210.78694199045896" departSpeed="12.4809" id="333" type="passenger">
		<route edges="640 706 634"/>
	</vehicle>
	<vehicle depart="0.1" departLane="1" departPos="48.26735740693633" departSpeed="4.1608" id="334" type="passenger">
		<route edges="627 671 638"/>
	</vehicle>
	<vehicle depart="0.1" departLane="0" departPos="165.33473774489886" departSpeed="7.9103" id="335" type="passenger">
		<route edges="637 680 630 673 658 676 706 634"/>
	</vehicle>
	<vehicle depart="0.1" departLane="0" departPos="42.83924829491618" departSpeed="0.0265" id="336" type="passenger">
		<route edges="662 699 699 704 650"/>
	</vehicle>
	<vehicle depart="0.1" departLane="1" departPos="166.96956808452117" departSpeed="13.5089" id="337" type="passenger">
		<route edges="640 706 634"/>
	</vehicle>
	<vehicle depart="0.1" departLane="0" departPos="160.36413487928195" departSpeed="11.3751" id="338" type="passenger">
		<route edges="635"/>
	</vehicle>
	<vehicle depart="0.1" departLane="0" departPos="0" departSpeed="11.7827" id="339" type="passenger">
		<route edges="646 702 654 682 638"/>
	</vehicle>
	<vehicle depart="0.1" departLane="0" departPos="0" departSpeed="0.0001" id="340" type="passenger">
		<route edges="662 699 644 666 654 689 630 673 658 676"/>
	</vehicle>
	<vehicle depart="0.1" departLane="0" departPos="0" departSpeed="10.7914" id="341" type="passenger">
		<route edges="659"/>
	</vehicle>
	<vehicle depart="0.1" departLane="0" departPos="188.27699823483297" departSpeed="13.2804" id="342" type="passenger">
		<route edges="640 640 706 634"/>
	</vehicle>
	<vehicle depart="0.1" departLane="0" departPos="48.66570533722792" departSpeed="15.7662" id="343" type="passenger">
		<route edges="627 701 651 683 683 705 645"/>
	</vehicle>
	<vehicle depart="0.1" departLane="0" departPos="147.93256739301654" departSpeed="8.803" id="344" type="passenger">
		<route edges="637 680 630 673 658 676 634"/>
	</vehicle>
	<vehicle depart="0.1" departLane="0" departPos="141.33566531321227" departSpeed="11.3668" id="345" type="passenger">
		<route edges="635"/>
	</vehicle>
	<vehicle depart="0.1" departLane="0" departPos="150.5131466923919" departSpeed="11.1601" id="346" type="passenger">
		<route edges="636 691 685 685 648 692 658 676 634"/>
	</vehicle>
	<vehicle depart="0.1" departLane="0" departPos="0" departSpeed="11.9033" id="347" type="passenger">
		<route edges="646 702 654 689 630 673 658 676 634"/>
	</vehicle>
	<vehicle depart="0.1" departLane="1" departPos="35.10881121427009" departSpeed="0.0769" id="348" type="passenger">
		<route edges="662 662 699 699 704 650"/>
	</vehicle>
	<vehicle depart="0.1" departLane="0" departPos="6.356975183850502" departSpeed="5.9212" id="349" type="passenger">
		<route edges="670 659"/>
	</vehicle>
	<vehicle depart="0.1" departLane="0" departPos="0" departSpeed="14.9833" id="350" type="passenger">
		<route edges="627 701 651 683 683 705 645"/>
	</vehicle>
	<vehicle depart="0.1" departLane="1" departPos="145.07501028347514" departSpeed="13.6969" id="351" type="passenger">
		<route edges="640 706 634"/>
	</vehicle>
	<vehicle depart="0.1" departLane="0" departPos="123.07768621296663" departSpeed="11.5915" id="352" type="passenger">
		<route edges="637 680 630 673 658 676 634"/>
	</vehicle>
	<vehicle depart="0.1" departLane="0" departPos="122.37648276521165" departSpeed="11.3329" id="353" type="passenger">
		<route edges="635"/>
	</vehicle>
	<vehicle depart="0.1" departLane="0" departPos="122.07790068963274" departSpeed="13.9203" id="354" type="passenger">
		<route edges="636 691 648 668 627 701 651 683 641 698 650"/>
	</vehicle>
	<vehicle depart="0.1" departLane="1" departPos="27.39634606219201" departSpeed="0.2026" id="355" type="passenger">
		<route edges="662 699 644 666 654 689 630 673 658 676"/>
	</vehicle>
	<vehicle depart="0.1" departLane="0" departPos="0" departSpeed="12.031" id="356" type="passenger">
		<route edges="646 702 654 689 630 673 658 676 634"/>
	</vehicle>
	<vehicle depart="0.1" departLane="0" departPos="100.76629319376647" departSpeed="6.9278" id="357" type="passenger">
		<route edges="649 670 659"/>
	</vehicle>
	<vehicle depart="0.1" departLane="1" departPos="16.1741142074806" departSpeed="14.5581" id="358" type="passenger">
		<route edges="694 655 678 668 627 671 638"/>
	</vehicle>
	<vehicle depart="0.1" departLane="0" departPos="0" departSpeed="13.7355" id="359" type="passenger">
		<route edges="640 640 706 634"/>
	</vehicle>
	<vehicle depart="0.1" departLane="0" departPos="103.58653463218805" departSpeed="11.1732" id="360" type="passenger">
		<route edges="635"/>
	</vehicle>
	<vehicle depart="0.1" departLane="0" departPos="103.08461914391374" departSpeed="11.7238" id="361" type="passenger">
		<route edges="637 680 630 673 658 676 634"/>
	</vehicle>
	<vehicle depart="0.1" departLane="0" departPos="0" departSpeed="0.0015" id="362" type="passenger">
		<route edges="662 699 644 666 654 689 630 673 658 676"/>
	</vehicle>
	<vehicle depart="0.1" departLane="0" departPos="0" departSpeed="12.4115" id="363" type="passenger">
		<route edges="646 702 654 689 630 673 658 676 634"/>
	</vehicle>
	<vehicle depart="0.1" departLane="0" departPos="100.20967973353507" departSpeed="13.9149" id="364" type="passenger">
		<route edges="636 691 648 668 627 701 651 683 641 698 650"/>
	</vehicle>
	<vehicle depart="0.1" departLane="0" departPos="0" departSpeed="14.1377" id="365" type="passenger">
		<route edges="640 706 634"/>
	</vehicle>
	<vehicle depart="0.1" departLane="0" departPos="101.27380531323854" departSpeed="14.2261" id="366" type="passenger">
		<route edges="631 694 655 678 627 701 651 683 683 705 645"/>
	</vehicle>
	<vehicle depart="0.1" departLane="0" departPos="100.76629319376647" departSpeed="7.7248" id="367" type="passenger">
		<route edges="649 670 659"/>
	</vehicle>
	<vehicle depart="0.1" departLane="0" departPos="85.08873943973764" departSpeed="11.0641" id="368" type="passenger">
		<route edges="635"/>
	</vehicle>
	<vehicle depart="0.1" departLane="0" departPos="0" departSpeed="11.9454" id="369" type="passenger">
		<route edges="637 680 630 673 658 676 634"/>
	</vehicle>
	<vehicle depart="0.1" departLane="0" departPos="0" departSpeed="11.4882" id="370" type="passenger">
		<route edges="646 702 654 689 630 673 658 676 634"/>
	</vehicle>
	<vehicle depart="0.1" departLane="0" departPos="0" departSpeed="14.7879" id="371" type="passenger">
		<route edges="640 640 706 634"/>
	</vehicle>
	<vehicle depart="0.1" departLane="0" departPos="75.77306539477615" departSpeed="13.7939" id="372" type="passenger">
		<route edges="636 691 648 668 627"/>
	</vehicle>
	<vehicle depart="0.1" departLane="0" departPos="74.54241905549134" departSpeed="14.026" id="373" type="passenger">
		<route edges="631 631 694 655 678 668 627 671 638"/>
	</vehicle>
	<vehicle depart="0.1" departLane="0" departPos="66.84208653668132" departSpeed="10.8983" id="374" type="passenger">
		<route edges="635"/>
	</vehicle>
	<vehicle depart="0.1" departLane="0" departPos="58.382413676943116" departSpeed="8.1368" id="375" type="passenger">
		<route edges="649 670 659"/>
	</vehicle>
	<vehicle depart="0.1" departLane="0" departPos="0" departSpeed="12.0004" id="376" type="passenger">
		<route edges="637 680 630 673 658 676 634"/>
	</vehicle>
	<vehicle depart="0.1" departLane="0" departPos="0" departSpeed="11.5618" id="377" type="passenger">
		<route edges="646 702 654 689 630 673 658 676 634"/>
	</vehicle>
	<vehicle depart="0.1" departLane="0" departPos="51.855216112119514" departSpeed="14.0092" id="378" type="passenger">
		<route edges="636 691 648 668 627"/>
	</vehicle>
	<vehicle depart="0.1" departLane="0" departPos="52.26994850789833" departSpeed="13.9711" id="379" type="passenger">
		<route edges="631 631 694 655 678 668 627 671 638"/>
	</vehicle>
	<vehicle depart="0.1" departLane="0" departPos="0" departSpeed="13.7324" id="380" type="passenger">
		<route edges="640 706 634"/>
	</vehicle>
	<vehicle depart="0.1" departLane="0" departPos="48.80989252733814" departSpeed="10.7188" id="381" type="passenger">
		<route edges="635"/>
	</vehicle>
	<vehicle depart="0.1" departLane="0" departPos="42.35469480260079" departSpeed="8.3015" id="382" type="passenger">
		<route edges="649 670 659"/>
	</vehicle>
	<vehicle depart="0.1" departLane="0" departPos="0" departSpeed="10.4758" id="383" type="passenger">
		<route edges="637 680 630 673 658 676 634"/>
	</vehicle>
	<vehicle depart="0.1" departLane="0" departPos="0" departSpeed="10.9687" id="384" type="passenger">
		<route edges="646 702 654 689 630 673 658 676 634"/>
	</vehicle>
	<vehicle depart="0.1" departLane="0" departPos="0" departSpeed="10.9362" id="385" type="passenger">
		<route edges="636 691 648 668 627"/>
	</vehicle>
	<vehicle depart="0.1" departLane="0" departPos="0" departSpeed="10.4412" id="386" type="passenger">
		<route edges="631 631 694 655 678 627 671 638"/>
	</vehicle>
	<vehicle depart="0.1" departLane="0" departPos="31.577472110514844" departSpeed="10.3498" id="387" type="passenger">
		<route edges="635"/>
	</vehicle>
	<vehicle depart="0.1" departLane="0" departPos="0" departSpeed="11.2531" id="388" type="passenger">
		<route edges="640 640 706 634"/>
	</vehicle>
	<vehicle depart="0.1" departLane="0" departPos="27.5700365274731" departSpeed="7.8384" id="389" type="passenger">
		<route edges="649 670 659"/>
	</vehicle>
	<vehicle depart="0.1" departLane="0" departPos="0" departSpeed="8.5603" id="390" type="passenger">
		<route edges="646 702 654 689 630 673 658 676 634"/>
	</vehicle>
	<vehicle depart="0.1" departLane="0" departPos="0" departSpeed="7.9345" id="391" type="passenger">
		<route edges="640 640 706 634"/>
	</vehicle>
	<vehicle depart="0.1" departLane="0" departPos="0" departSpeed="6.418" id="392" type="passenger">
		<route edges="637 680 630 673 658 676 634"/>
	</vehicle>
	<vehicle depart="0.1" departLane="0" departPos="0" departSpeed="7.5622" id="393" type="passenger">
		<route edges="636 691 648 668 627"/>
	</vehicle>
	<vehicle depart="0.1" departLane="0" departPos="0" departSpeed="7.3553" id="394" type="passenger">
		<route edges="631 694 655 678 627 701 651 683 641 698 650"/>
	</vehicle>
	<vehicle depart="0.1" departLane="0" departPos="0" departSpeed="8.1755" id="395" type="passenger">
		<route edges="635"/>
	</vehicle>
	<vehicle depart="0.1" departLane="0" departPos="0" departSpeed="5.0601" id="396" type="passenger">
		<route edges="649 670 659"/>
	</vehicle>
	<vehicle depart="0.1" departLane="0" departPos="0" departSpeed="3.6199" id="397" type="passenger">
		<route edges="646 702 654 689 630 673 658 676 634"/>
	</vehicle>
	<vehicle depart="0.1" departLane="0" departPos="0" departSpeed="4.7992" id="398" type="passenger">
		<route edges="640 706 634"/>
	</vehicle>
	<vehicle depart="0.1" departLane="0" departPos="0" departSpeed="4.3616" id="399" type="passenger">
		<route edges="636 691 648 668 627"/>
	</vehicle>
	<vehicle depart="0.1" departLane="0" departPos="0" departSpeed="4.8267" id="3100" type="passenger">
		<route edges="635"/>
	</vehicle>
	<vehicle depart="0.1" departLane="0" departPos="0" departSpeed="4.2788" id="3101" type="passenger">
		<route edges="631 631 694 655 678 627 671 638"/>
	</vehicle>
	<vehicle depart="0.1" departLane="0" departPos="0" departSpeed="3.4983" id="3102" type="passenger">
		<route edges="637 680 630 673 658 676 634"/>
	</vehicle>
</routes>
