<routes>
	<vehicle depart="0.1" departLane="1" departPos="23.44186912496868" departSpeed="0.0" id="325" type="bus">
		<route edges="8713 8718"/>
	</vehicle>
	<vehicle depart="0.1" departLane="0" departPos="2.5" departSpeed="11.466931" id="312" type="passenger">
		<route edges="8715 9773 8826"/>
	</vehicle>
	<vehicle depart="0.1" departLane="0" departPos="68.99395749808595" departSpeed="0.0" id="317" type="passenger">
		<route edges="8777 8998"/>
	</vehicle>
	<vehicle depart="0.1" departLane="0" departPos="12.243320154683913" departSpeed="10.891266" id="318" type="passenger">
		<route edges=":49_5 8997 8992"/>
	</vehicle>
	<vehicle depart="0.1" departLane="0" departPos="26.130454099156477" departSpeed="0.0" id="330" type="passenger">
		<route edges=":50_0 8998"/>
	</vehicle>
	<vehicle depart="0.1" departLane="1" departPos="8.524304731177832" departSpeed="4.5083721e-05" id="332" type="passenger">
		<route edges="8713 8718"/>
	</vehicle>
	<vehicle depart="0.1" departLane="1" departPos="30.187357449218332" departSpeed="0.001127511" id="339" type="passenger">
		<route edges=":51_0 8713"/>
	</vehicle>
	<vehicle depart="0.1" departLane="0" departPos="27.2350874463297" departSpeed="9.5081821" id="359" type="passenger">
		<route edges=":50_2 8992 9610"/>
	</vehicle>
	<vehicle depart="0.1" departLane="0" departPos="18.847244351968744" departSpeed="0.0" id="33" type="motorcycle">
		<route edges=":50_0 8998"/>
	</vehicle>
	<vehicle depart="0.1" departLane="0" departPos="36.099349518827935" departSpeed="0.0" id="328" type="truck">
		<route edges=":50_0 8998"/>
	</vehicle>
</routes>
