<routes>
	<vehicle depart="0.1" departLane="0" departPos="55.36104315874136" departSpeed="0.055202582" id="330" type="bus">
		<route edges="5627 5701"/>
	</vehicle>
	<vehicle depart="0.1" departLane="0" departPos="24.058256576356936" departSpeed="0.73293533" id="346" type="bus">
		<route edges="5627 5701"/>
	</vehicle>
	<vehicle depart="0.1" departLane="0" departPos="70.1629759168109" departSpeed="0.0" id="33" type="passenger">
		<route edges="5627 5701"/>
	</vehicle>
	<vehicle depart="0.1" departLane="0" departPos="19.215629816339522" departSpeed="10.858053" id="39" type="passenger">
		<route edges=":33_4 5626"/>
	</vehicle>
	<vehicle depart="0.1" departLane="0" departPos="62.91504325115169" departSpeed="0.0076705854" id="328" type="passenger">
		<route edges="5627 5701"/>
	</vehicle>
	<vehicle depart="0.1" departLane="0" departPos="40.272751945355004" departSpeed="0.18751115" id="333" type="passenger">
		<route edges="5627 5701"/>
	</vehicle>
	<vehicle depart="0.1" departLane="0" departPos="32.33664764468283" departSpeed="0.45098955" id="337" type="passenger">
		<route edges="5627 5701"/>
	</vehicle>
	<vehicle depart="0.1" departLane="0" departPos="8.176438414475086" departSpeed="0.97429054" id="354" type="passenger">
		<route edges="5627 5701"/>
	</vehicle>
</routes>
