<routes>
	<vehicle depart="0.1" departLane="1" departPos="59.336951361748476" departSpeed="1.5566573" id="319" type="bicycle">
		<route edges="32 640"/>
	</vehicle>
	<vehicle depart="0.1" departLane="0" departPos="21.765673952109495" departSpeed="0.00029425197" id="320" type="bicycle">
		<route edges="648 32"/>
	</vehicle>
	<vehicle depart="0.1" departLane="0" departPos="8.27782907548175" departSpeed="6.9174165" id="334" type="bus">
		<route edges=":22_4 34 649"/>
	</vehicle>
	<vehicle depart="0.1" departLane="0" departPos="48.79925182771736" departSpeed="0.0" id="38" type="passenger">
		<route edges="648 32"/>
	</vehicle>
	<vehicle depart="0.1" departLane="0" departPos="41.98695607541366" departSpeed="0.0" id="310" type="passenger">
		<route edges="648 32"/>
	</vehicle>
	<vehicle depart="0.1" departLane="0" departPos="34.86827604026291" departSpeed="0.0" id="313" type="passenger">
		<route edges="648 32"/>
	</vehicle>
	<vehicle depart="0.1" departLane="1" departPos="59.670404799531376" departSpeed="0.0" id="314" type="passenger">
		<route edges="32 640"/>
	</vehicle>
	<vehicle depart="0.1" departLane="1" departPos="47.56645552609109" departSpeed="0.0012227558" id="317" type="passenger">
		<route edges="32 640"/>
	</vehicle>
	<vehicle depart="0.1" departLane="0" departPos="27.42465581579063" departSpeed="4.0905802e-05" id="318" type="passenger">
		<route edges="648 32"/>
	</vehicle>
	<vehicle depart="0.1" departLane="0" departPos="10.135012545916045" departSpeed="4.1969496" id="321" type="passenger">
		<route edges=":20_7 649"/>
	</vehicle>
	<vehicle depart="0.1" departLane="0" departPos="59.804483925550436" departSpeed="2.4141438" id="322" type="passenger">
		<route edges="34 649"/>
	</vehicle>
	<vehicle depart="0.1" departLane="0" departPos="22.309180353907085" departSpeed="0.0" id="323" type="passenger">
		<route edges=":20_4 32"/>
	</vehicle>
	<vehicle depart="0.1" departLane="1" departPos="40.77789416437341" departSpeed="0.064064783" id="325" type="passenger">
		<route edges="32 640"/>
	</vehicle>
	<vehicle depart="0.1" departLane="0" departPos="17.17878170348289" departSpeed="0.001427397" id="326" type="passenger">
		<route edges="648 32"/>
	</vehicle>
	<vehicle depart="0.1" departLane="0" departPos="49.20772347356641" departSpeed="3.0009859" id="327" type="passenger">
		<route edges="34 649"/>
	</vehicle>
	<vehicle depart="0.1" departLane="1" departPos="33.22618388559118" departSpeed="0.5641014" id="328" type="passenger">
		<route edges="32 640"/>
	</vehicle>
	<vehicle depart="0.1" departLane="0" departPos="2.5" departSpeed="0.0" id="329" type="passenger">
		<route edges="705 649"/>
	</vehicle>
	<vehicle depart="0.1" departLane="0" departPos="12.223907857845495" departSpeed="7.5632645" id="331" type="passenger">
		<route edges="640"/>
	</vehicle>
	<vehicle depart="0.1" departLane="0" departPos="9.85546629070829" departSpeed="0.0057436851" id="332" type="passenger">
		<route edges="648 32"/>
	</vehicle>
	<vehicle depart="0.1" departLane="1" departPos="23.462651670486753" departSpeed="2.0659627" id="333" type="passenger">
		<route edges="32 640"/>
	</vehicle>
	<vehicle depart="0.1" departLane="0" departPos="56.90324322669853" departSpeed="6.624335" id="335" type="passenger">
		<route edges="30 640"/>
	</vehicle>
	<vehicle depart="0.1" departLane="1" departPos="11.280786940206227" departSpeed="4.171141" id="336" type="passenger">
		<route edges="32 640"/>
	</vehicle>
	<vehicle depart="0.1" departLane="0" departPos="43.15780050957706" departSpeed="6.5409036" id="337" type="passenger">
		<route edges="30 640"/>
	</vehicle>
	<vehicle depart="0.1" departLane="0" departPos="29.8098276919653" departSpeed="6.5104596" id="339" type="passenger">
		<route edges="30 34"/>
	</vehicle>
	<vehicle depart="0.1" departLane="1" departPos="7.174228932894286" departSpeed="4.5806981" id="340" type="passenger">
		<route edges="705 32 640"/>
	</vehicle>
	<vehicle depart="0.1" departLane="0" departPos="9.242244334508051" departSpeed="3.7103776" id="342" type="passenger">
		<route edges="30 34"/>
	</vehicle>
	<vehicle depart="0.1" departLane="1" departPos="52.168978237148565" departSpeed="0.0" id="315" type="motorcycle">
		<route edges="32 640"/>
	</vehicle>
	<vehicle depart="0.1" departLane="0" departPos="17.13554130361812" departSpeed="5.8146189" id="341" type="motorcycle">
		<route edges="30 34 649"/>
	</vehicle>
</routes>
