<!-- generated on 2020-12-18 15:39:01.528223 by ipykernel_launcher.py v1_2_0+5214-53edc58fcd
-->
<nodes>
	<node id="1" type="from" x="-47.419380000000004" y="37.85101"/>
	<node id="2" type="to" x="132.90297" y="-115.75416999999997"/>
</nodes>
