<routes>
	<vehicle depart="0.1" departLane="3" departPos="111.94273409115031" departSpeed="16.0751" id="396" type="passenger">
		<route edges="14"/>
	</vehicle>
	<vehicle depart="0.1" departLane="3" departPos="89.46304403974354" departSpeed="15.558" id="397" type="passenger">
		<route edges="14"/>
	</vehicle>
	<vehicle depart="0.1" departLane="3" departPos="103.76055676054732" departSpeed="15.4202" id="399" type="passenger">
		<route edges="14"/>
	</vehicle>
	<vehicle depart="0.1" departLane="1" departPos="57.13220285196775" departSpeed="14.4502" id="400" type="passenger">
		<route edges="14"/>
	</vehicle>
	<vehicle depart="0.1" departLane="1" departPos="88.90491642209227" departSpeed="15.1206" id="402" type="passenger">
		<route edges="14"/>
	</vehicle>
	<vehicle depart="0.1" departLane="2" departPos="108.40045540211135" departSpeed="18.5889" id="403" type="passenger">
		<route edges="14"/>
	</vehicle>
	<vehicle depart="0.1" departLane="4" departPos="99.37275333867666" departSpeed="16.1465" id="404" type="passenger">
		<route edges="14"/>
	</vehicle>
	<vehicle depart="0.1" departLane="3" departPos="73.67236812607872" departSpeed="13.8165" id="405" type="passenger">
		<route edges="14"/>
	</vehicle>
	<vehicle depart="0.1" departLane="1" departPos="104.66427657356147" departSpeed="11.1173" id="408" type="passenger">
		<route edges="14"/>
	</vehicle>
	<vehicle depart="0.1" departLane="1" departPos="65.23639996178956" departSpeed="14.7875" id="410" type="passenger">
		<route edges="14 14"/>
	</vehicle>
	<vehicle depart="0.1" departLane="1" departPos="75.6621558430405" departSpeed="15.4653" id="415" type="passenger">
		<route edges="14"/>
	</vehicle>
	<vehicle depart="0.1" departLane="0" departPos="73.92916918628083" departSpeed="17.3933" id="416" type="passenger">
		<route edges="14"/>
	</vehicle>
	<vehicle depart="0.1" departLane="4" departPos="81.23314097214379" departSpeed="21.9021" id="417" type="passenger">
		<route edges="14"/>
	</vehicle>
	<vehicle depart="0.1" departLane="2" departPos="91.6863697945496" departSpeed="19.226" id="419" type="passenger">
		<route edges="14"/>
	</vehicle>
</routes>
