<?xml version="1.0" encoding="UTF-8"?>

<!-- generated on Fri Dec 18 15:39:01 2020 by Eclipse SUMO netconvert Version 1.8.0
<configuration xmlns:xsi="http://www.w3.org/2001/XMLSchema-instance" xsi:noNamespaceSchemaLocation="http://sumo.dlr.de/xsd/netconvertConfiguration.xsd">

    <input>
        <node-files value="./converted_scenarios/hand-crafted/USA_US101-6_2_I-1-1/nodes.net.xml"/>
        <edge-files value="./converted_scenarios/hand-crafted/USA_US101-6_2_I-1-1/edges.net.xml"/>
        <connection-files value="./converted_scenarios/hand-crafted/USA_US101-6_2_I-1-1/_connections.net.xml"/>
        <tllogic-files value="./converted_scenarios/hand-crafted/USA_US101-6_2_I-1-1/_tll.net.xml"/>
    </input>

    <output>
        <output-file value="./converted_scenarios/hand-crafted/USA_US101-6_2_I-1-1/USA_US101-6_2_I-1-1.net.xml"/>
    </output>

    <processing>
        <plain.extend-edge-shape value="true"/>
        <geometry.remove.keep-edges.explicit value="true"/>
        <geometry.avoid-overlap value="true"/>
        <offset.disable-normalization value="true"/>
    </processing>

    <junctions>
        <no-turnarounds value="true"/>
        <junctions.internal-link-detail value="20"/>
    </junctions>

    <report>
        <aggregate-warnings value="5"/>
    </report>

    <random_number>
        <seed value="1234"/>
    </random_number>

</configuration>
-->

<net version="1.6" junctionCornerDetail="5" junctionLinkDetail="20" limitTurnSpeed="5.50" xmlns:xsi="http://www.w3.org/2001/XMLSchema-instance" xsi:noNamespaceSchemaLocation="http://sumo.dlr.de/xsd/net_file.xsd">

    <location netOffset="0.00,0.00" convBoundary="-47.42,-115.75,132.90,37.85" origBoundary="-51.82,-121.26,137.03,43.00" projParameter="!"/>

    <edge id="14" from="1" to="2" priority="1" spreadType="center" length="236.58">
        <lane id="14_0" index="0" disallow="bus rail_fast" speed="36.11" length="236.58" width="3.51" customShape="1" shape="-51.82,32.69 -45.28,26.92 -43.99,25.80 -42.32,24.34 -34.25,17.28 -31.27,14.66 -29.70,13.29 -23.27,7.70 -20.28,5.11 -17.12,2.36 -12.49,-1.68 -9.51,-4.29 -1.86,-11.00 1.11,-13.60 3.32,-15.52 8.89,-20.39 11.88,-23.02 20.11,-30.33 23.06,-32.92 24.97,-34.59 30.78,-39.63 33.78,-42.24 41.65,-49.06 43.24,-50.44 44.67,-51.68 52.78,-58.78 55.78,-61.37 59.83,-64.90 63.59,-68.20 66.56,-70.80 69.59,-73.44 74.88,-78.01 77.88,-80.60 79.28,-81.78 83.24,-85.03 85.92,-87.25 88.94,-89.82 96.90,-96.29 97.00,-96.37 98.23,-97.42 100.01,-98.92 108.39,-105.66 109.82,-106.82 111.59,-108.20 120.58,-114.92 121.32,-115.51 123.66,-117.36 128.70,-121.26"/>
        <lane id="14_1" index="1" disallow="bus truck rail_fast" speed="36.11" length="236.58" width="3.12" customShape="1" shape="-49.57,35.33 -43.00,29.54 -42.90,29.46 -40.00,26.94 -39.90,26.85 -31.91,19.90 -31.56,19.59 -28.92,17.30 -28.57,17.00 -20.98,10.32 -20.88,10.24 -18.00,7.73 -17.90,7.64 -10.21,1.08 -8.97,0.03 -7.13,-1.58 -5.94,-2.61 0.50,-8.36 1.49,-9.24 3.45,-10.94 4.49,-11.84 11.25,-17.84 12.63,-19.06 14.20,-20.43 15.57,-21.63 22.40,-27.57 23.72,-28.70 25.47,-30.23 26.75,-31.33 33.18,-36.91 34.75,-38.28 36.17,-39.51 37.75,-40.88 44.05,-46.34 46.08,-48.10 47.04,-48.94 49.01,-50.67 55.11,-56.12 56.80,-57.61 58.08,-58.71 59.77,-60.19 65.89,-65.59 67.85,-67.31 68.86,-68.19 70.84,-69.91 77.15,-75.39 78.73,-76.77 80.13,-77.99 81.77,-79.37 88.09,-84.47 90.60,-86.55 90.71,-86.64 91.24,-87.09 93.83,-89.24 99.24,-93.57 102.18,-96.03 102.29,-96.12 110.71,-102.87 113.36,-105.01 113.79,-105.36 116.54,-107.50 122.68,-112.04 124.80,-113.68 124.93,-113.77 125.88,-114.54 128.07,-116.27 130.87,-118.41"/>
        <lane id="14_2" index="2" disallow="bus rail_fast" speed="36.11" length="236.58" width="3.08" customShape="1" shape="-47.41,37.86 -45.18,35.94 -42.14,33.29 -40.67,31.99 -37.69,29.37 -33.76,25.90 -30.77,23.30 -29.39,22.10 -26.40,19.50 -23.04,16.55 -20.06,13.94 -18.73,12.78 -15.71,10.16 -11.57,6.64 -8.56,4.07 -6.73,2.53 -3.75,-0.04 -0.57,-2.83 2.41,-5.48 3.75,-6.68 6.72,-9.30 10.63,-12.82 13.56,-15.43 14.79,-16.53 17.80,-19.18 21.81,-22.65 24.82,-25.23 25.95,-26.21 28.93,-28.82 33.14,-32.49 36.13,-35.09 36.92,-35.79 39.91,-38.39 43.88,-41.86 46.87,-44.47 48.22,-45.65 51.21,-48.26 54.81,-51.45 57.77,-54.06 58.94,-55.09 61.96,-57.71 65.97,-61.23 68.95,-63.84 69.98,-64.73 73.00,-67.33 77.36,-71.09 80.38,-73.71 80.94,-74.20 83.94,-76.80 88.74,-80.77 91.79,-83.30 92.77,-84.06 95.71,-86.45 95.85,-86.55 100.02,-89.82 103.06,-92.37 111.56,-99.13 114.59,-101.68 115.40,-102.31 118.50,-104.75 118.61,-104.83 123.13,-108.22 126.27,-110.64 126.97,-111.15 129.99,-113.49 130.08,-113.56 132.94,-115.71"/>
        <lane id="14_3" index="3" disallow="bus truck rail_fast" speed="36.11" length="236.58" width="3.23" customShape="1" shape="-45.26,40.38 -42.95,38.42 -42.82,38.32 -39.94,35.81 -39.85,35.73 -31.77,28.59 -31.60,28.44 -28.74,25.96 -28.57,25.80 -20.82,19.00 -20.60,18.81 -17.84,16.41 -17.61,16.21 -9.46,9.23 -6.44,6.61 1.48,-0.27 1.68,-0.45 4.46,-2.86 4.69,-3.06 12.56,-10.07 12.84,-10.32 15.57,-12.70 15.85,-12.93 23.69,-19.79 24.00,-20.05 26.73,-22.43 27.02,-22.68 34.70,-29.40 35.34,-29.95 37.70,-32.01 38.35,-32.58 46.05,-39.38 49.04,-41.98 57.01,-48.92 60.04,-51.55 67.98,-58.53 68.20,-58.73 70.97,-61.13 71.16,-61.30 79.12,-68.08 79.64,-68.53 82.10,-70.67 82.59,-71.09 90.51,-77.89 90.87,-78.20 93.52,-80.50 93.63,-80.60 93.83,-80.75 102.14,-87.17 105.18,-89.81 113.67,-96.44 116.58,-98.88 116.76,-99.03 125.18,-105.50 125.30,-105.60 128.29,-108.02 128.51,-108.18 134.99,-113.05"/>
        <lane id="14_4" index="4" disallow="bus truck rail_fast" speed="36.11" length="236.58" width="3.45" customShape="1" shape="-43.03,43.00 -40.56,40.89 -40.18,40.57 -37.56,38.28 -37.19,37.96 -29.45,31.17 -29.06,30.84 -26.46,28.58 -26.12,28.27 -18.35,21.38 -17.98,21.05 -15.38,18.79 -14.97,18.44 -7.18,11.84 -6.80,11.52 -4.17,9.23 -3.82,8.92 3.69,2.27 4.07,1.94 6.67,-0.32 7.01,-0.63 14.82,-7.56 15.19,-7.89 17.79,-10.15 18.19,-10.49 26.00,-17.22 26.38,-17.55 29.00,-19.82 29.38,-20.16 36.99,-26.79 37.38,-27.13 39.98,-29.39 40.32,-29.69 48.32,-36.81 48.69,-37.14 51.29,-39.40 51.69,-39.75 59.33,-46.33 59.72,-46.67 62.33,-48.94 62.68,-49.24 70.24,-55.97 70.62,-56.29 73.22,-58.55 73.62,-58.90 81.33,-65.49 81.71,-65.82 84.33,-68.10 84.74,-68.45 92.78,-75.29 93.16,-75.61 95.79,-77.90 96.25,-78.28 104.33,-84.61 104.66,-84.88 104.79,-84.99 107.39,-87.25 107.87,-87.64 115.80,-93.79 116.27,-94.16 118.91,-96.30 119.45,-96.72 127.50,-102.94 127.97,-103.31 130.62,-105.45 131.16,-105.88 137.06,-110.38"/>
    </edge>

    <junction id="1" type="dead_end" x="-47.42" y="37.85" incLanes="" intLanes="" shape="-41.92,44.31 -52.96,31.35"/>
    <junction id="2" type="dead_end" x="132.90" y="-115.75" incLanes="14_0 14_1 14_2 14_3 14_4" intLanes="" shape="127.60,-122.62 138.11,-109.01"/>

</net>
