<routes>
	<vehicle depart="0.1" departLane="0" departPos="9.426747765084404" departSpeed="0.0" id="31" type="passenger">
		<route edges=":44_2 94697"/>
	</vehicle>
	<vehicle depart="0.1" departLane="0" departPos="62.39741073448254" departSpeed="0.0" id="32" type="passenger">
		<route edges="94820 94704"/>
	</vehicle>
	<vehicle depart="0.1" departLane="0" departPos="69.89806721372825" departSpeed="0.0" id="313" type="passenger">
		<route edges="94820 94704"/>
	</vehicle>
	<vehicle depart="0.1" departLane="0" departPos="61.54120113782587" departSpeed="8.9334757" id="351" type="passenger">
		<route edges="94706 94703 94700"/>
	</vehicle>
	<vehicle depart="0.1" departLane="0" departPos="27.83951792673726" departSpeed="8.5842303" id="356" type="passenger">
		<route edges="94706 94711"/>
	</vehicle>
	<vehicle depart="0.1" departLane="0" departPos="54.31120125271408" departSpeed="10.132597" id="358" type="passenger">
		<route edges="94706 94703 94700"/>
	</vehicle>
	<vehicle depart="0.1" departLane="0" departPos="23.081626416624392" departSpeed="9.8986128" id="343" type="motorcycle">
		<route edges=":44_3 94697 94663"/>
	</vehicle>
	<vehicle depart="0.1" departLane="0" departPos="1.25" departSpeed="12.117219" id="348" type="motorcycle">
		<route edges=":48_2 94703 94819"/>
	</vehicle>
</routes>
