<!-- generated on 2020-12-18 16:01:01.603641 by ipykernel_launcher.py v1_2_0+5214-53edc58fcd
-->
<edges>
	<edge from="1" function="normal" id="3498" length="9.586095898357163" numLanes="1" priority="1" speed="36.11111111111111" spreadType="center" to="2">
		<lane allow="moped bicycle pedestrian custom1 trailer evehicle rail_urban ship private truck vip custom2 authority delivery rail_electric taxi tram army hov coach motorcycle passenger bus rail emergency" index="0" length="9.586095898357163" shape="53.75565,74.3879 44.1749,74.708" speed="36.11111111111111" width="4.771086938004798"/>
	</edge>
	<edge from="2" function="normal" id="3716" length="18.680147901632285" numLanes="1" priority="1" speed="36.11111111111111" spreadType="center" to="3">
		<lane allow="moped bicycle pedestrian custom1 trailer evehicle rail_urban ship private vip custom2 authority delivery rail_electric taxi tram army hov coach motorcycle passenger rail emergency" index="0" length="18.680147901632285" shape="44.1749,74.708 40.19105,76.1494 37.33545,78.65205 36.283950000000004,81.04214999999999 35.5813,83.0704 35.7263,86.2154 36.71745,88.77035000000001" speed="36.11111111111111" width="3.3538723559491603"/>
	</edge>
	<edge from="4" function="normal" id="3509" length="15.63298084853255" numLanes="3" priority="1" speed="36.11111111111111" spreadType="center" to="5">
		<lane allow="moped bicycle pedestrian custom1 trailer evehicle rail_urban ship private truck vip custom2 authority delivery rail_electric taxi tram army hov coach motorcycle passenger bus rail emergency" index="0" length="15.63298084853255" shape="-57.0374,9.36855 -52.6412,7.1877 -43.03075,2.40415" speed="36.11111111111111" width="3.2317602711216065"/>
		<lane allow="moped bicycle pedestrian custom1 trailer evehicle rail_urban ship private truck vip custom2 authority delivery rail_electric taxi tram army hov coach motorcycle passenger bus rail emergency" index="1" length="15.63298084853255" shape="-55.64785,12.169599999999999 -51.21045,9.9683 -41.59995,5.184749999999999" speed="36.11111111111111" width="3.0217924167619445"/>
		<lane allow="moped bicycle pedestrian custom1 trailer evehicle rail_urban ship private truck vip custom2 authority delivery rail_electric taxi tram army hov coach motorcycle passenger bus rail emergency" index="2" length="15.63298084853255" shape="-54.2967,14.89325 -49.804100000000005,12.6646 -40.2932,7.944" speed="36.11111111111111" width="3.058956104621315"/>
	</edge>
	<edge from="5" function="normal" id="3672" length="43.429643178518916" numLanes="1" priority="1" speed="36.11111111111111" spreadType="center" to="6">
		<lane allow="moped bicycle pedestrian custom1 trailer evehicle rail_urban ship private vip custom2 authority delivery rail_electric taxi tram army hov coach motorcycle passenger rail emergency" index="0" length="43.429643178518916" shape="-40.2932,7.944 -35.135999999999996,5.40365 -31.553200000000004,3.91915 -27.707349999999998,2.5604999999999998 -24.926650000000002,1.5902 -22.4407,1.09335 -20.205849999999998,0.88095 -17.86965,0.9979500000000001 -16.22515,1.1323500000000002 -15.1157,1.3885999999999998 -14.17595,1.9715999999999998 -13.2567,3.3218 -12.100999999999999,5.25015 -9.43355,9.4876 -7.8598,12.53935 -6.38805,15.651499999999999" speed="36.11111111111111" width="2.91718217634758"/>
	</edge>
	<edge from="6" function="normal" id="3456" length="24.710920579823167" numLanes="3" priority="1" speed="36.11111111111111" spreadType="center" to="7">
		<lane allow="moped bicycle pedestrian custom1 trailer evehicle rail_urban ship private truck vip custom2 authority delivery rail_electric taxi tram army hov coach motorcycle passenger bus rail emergency" index="0" length="24.710920579823167" shape="-0.8613999999999999,12.8918 2.7344,20.0854 6.58775,28.002499999999998 9.9504,35.1109" speed="36.11111111111111" width="3.0476685974692166"/>
		<lane allow="moped bicycle pedestrian custom1 trailer evehicle rail_urban ship private truck vip custom2 authority delivery rail_electric taxi tram army hov coach motorcycle passenger bus rail emergency" index="1" length="24.710920579823167" shape="-3.69025,14.28605 0.16984999999999995,21.85295 3.8481,29.41855 7.28695,36.449" speed="36.11111111111111" width="2.914824113046961"/>
		<lane allow="moped bicycle pedestrian custom1 trailer evehicle rail_urban ship private truck vip custom2 authority delivery rail_electric taxi tram army hov coach motorcycle passenger bus rail emergency" index="2" length="24.710920579823167" shape="-6.38805,15.651499999999999 -2.45955,23.4137 1.3289,31.11625 4.70045,37.76285" speed="36.11111111111111" width="2.8880043801905857"/>
	</edge>
	<edge from="7" function="normal" id="3462" length="8.466645302154804" numLanes="3" priority="1" speed="36.11111111111111" spreadType="center" to="8">
		<lane allow="moped bicycle pedestrian custom1 trailer evehicle rail_urban ship private truck vip custom2 authority delivery rail_electric taxi tram army hov coach motorcycle passenger bus rail emergency" index="0" length="8.466645302154804" shape="9.9504,35.1109 13.829699999999999,42.673649999999995" speed="36.11111111111111" width="3.0476685974692166"/>
		<lane allow="moped bicycle pedestrian custom1 trailer evehicle rail_urban ship private truck vip custom2 authority delivery rail_electric taxi tram army hov coach motorcycle passenger bus rail emergency" index="1" length="8.466645302154804" shape="7.28695,36.449 11.10505,44.0587" speed="36.11111111111111" width="2.914824113046961"/>
		<lane allow="moped bicycle pedestrian custom1 trailer evehicle rail_urban ship private truck vip custom2 authority delivery rail_electric taxi tram army hov coach motorcycle passenger bus rail emergency" index="2" length="8.466645302154804" shape="4.70045,37.76285 8.4411,45.35835" speed="36.11111111111111" width="2.8880043801905857"/>
	</edge>
	<edge from="8" function="normal" id="3468" length="22.23819662728308" numLanes="3" priority="1" speed="36.11111111111111" spreadType="center" to="9">
		<lane allow="moped bicycle pedestrian custom1 trailer evehicle rail_urban ship private truck vip custom2 authority delivery rail_electric taxi tram army hov coach motorcycle passenger bus rail emergency" index="0" length="22.23819662728308" shape="13.829699999999999,42.673649999999995 18.42905,51.965199999999996 23.8057,62.6462" speed="36.11111111111111" width="3.0326639856733246"/>
		<lane allow="moped bicycle pedestrian custom1 trailer evehicle rail_urban ship private truck vip custom2 authority delivery rail_electric taxi tram army hov coach motorcycle passenger bus rail emergency" index="1" length="22.23819662728308" shape="11.10505,44.0587 15.7513,53.380449999999996 21.003149999999998,63.98625" speed="36.11111111111111" width="2.9980111023810445"/>
		<lane allow="moped bicycle pedestrian custom1 trailer evehicle rail_urban ship private truck vip custom2 authority delivery rail_electric taxi tram army hov coach motorcycle passenger bus rail emergency" index="2" length="22.23819662728308" shape="8.4411,45.35835 13.05745,54.757400000000004 18.2468,65.31795" speed="36.11111111111111" width="2.9350875710956243"/>
	</edge>
	<edge from="9" function="normal" id="3713" length="29.142816807837434" numLanes="3" priority="1" speed="36.11111111111111" spreadType="center" to="10">
		<lane allow="moped bicycle pedestrian custom1 trailer evehicle rail_urban ship private truck vip custom2 authority delivery rail_electric taxi tram army hov coach motorcycle passenger bus rail emergency" index="0" length="29.142816807837434" shape="23.8057,62.6462 27.72185,70.63935000000001 31.66845,78.5859 35.424549999999996,86.19655 36.597899999999996,88.8291" speed="36.11111111111111" width="3.157633506282831"/>
		<lane allow="moped bicycle pedestrian custom1 trailer evehicle rail_urban ship private truck vip custom2 authority delivery rail_electric taxi tram army hov coach motorcycle passenger rail emergency" index="1" length="29.142816807837434" shape="21.003149999999998,63.98625 24.44065,70.92425 28.38715,78.87084999999999 32.5578,87.36815 33.8428,90.1825" speed="36.11111111111111" width="2.9348672269797813"/>
		<lane allow="moped bicycle pedestrian custom1 trailer evehicle rail_urban ship private truck vip custom2 authority delivery rail_electric taxi tram army hov coach motorcycle passenger bus rail emergency" index="2" length="29.142816807837434" shape="18.2468,65.31795 21.0794,71.018 24.91415,78.7199 29.7527,88.53125 31.138849999999998,91.51075" speed="36.11111111111111" width="3.067322045367916"/>
	</edge>
	<edge from="5" function="normal" id="3636" length="10.130444963203741" numLanes="2" priority="1" speed="36.11111111111111" spreadType="center" to="11">
		<lane allow="moped bicycle pedestrian custom1 trailer evehicle rail_urban ship private truck vip custom2 authority delivery rail_electric taxi tram army hov coach motorcycle passenger bus rail emergency" index="0" length="10.130444963203741" shape="-43.03075,2.40415 -34.01965,-2.2812" speed="36.11111111111111" width="3.232186618993401"/>
		<lane allow="moped bicycle pedestrian custom1 trailer evehicle rail_urban ship private truck vip custom2 authority delivery rail_electric taxi tram army hov coach motorcycle passenger bus rail emergency" index="1" length="10.130444963203741" shape="-41.59995,5.184749999999999 -32.57525,0.5825" speed="36.11111111111111" width="3.0254656269738036"/>
	</edge>
	<edge from="11" function="normal" id="3658" length="24.83401336288984" numLanes="2" priority="1" speed="36.11111111111111" spreadType="center" to="12">
		<lane allow="moped bicycle pedestrian custom1 trailer evehicle rail_urban ship private truck vip custom2 authority delivery rail_electric taxi tram army hov coach motorcycle passenger bus rail emergency" index="0" length="24.83401336288984" shape="-34.01965,-2.2812 -31.123849999999997,-3.7870999999999997 -28.46835,-5.16785 -25.7514,-6.580550000000001 -22.7631,-8.13445 -20.06145,-9.53935 -17.41675,-10.9145 -14.7012,-12.3265 -11.92945,-13.76775" speed="36.11111111111111" width="3.30890878840744"/>
		<lane allow="moped bicycle pedestrian custom1 trailer evehicle rail_urban ship private truck vip custom2 authority delivery rail_electric taxi tram army hov coach motorcycle passenger bus rail emergency" index="1" length="24.83401336288984" shape="-32.57525,0.5825 -29.707250000000002,-0.8800999999999999 -27.036250000000003,-2.24215 -24.29795,-3.6385000000000005 -21.33335,-5.15025 -18.6229,-6.532500000000001 -15.97295,-7.88375 -13.2385,-9.27805 -10.451699999999999,-10.699200000000001" speed="36.11111111111111" width="3.105783426126168"/>
	</edge>
	<edge from="12" function="normal" id="3676" length="16.155928389455166" numLanes="2" priority="1" speed="36.11111111111111" spreadType="center" to="13">
		<lane allow="moped bicycle pedestrian custom1 trailer evehicle rail_urban ship private truck vip custom2 authority delivery rail_electric taxi tram army hov coach motorcycle passenger bus rail emergency" index="0" length="16.155928389455166" shape="-11.92945,-13.76775 -5.909750000000001,-16.774 2.5243,-20.986" speed="36.11111111111111" width="3.5034549033775217"/>
		<lane allow="moped bicycle pedestrian custom1 trailer evehicle rail_urban ship private truck vip custom2 authority delivery rail_electric taxi tram army hov coach motorcycle passenger bus rail emergency" index="1" length="16.155928389455166" shape="-10.451699999999999,-10.699200000000001 -4.42705,-13.6845 4.0691500000000005,-17.8944" speed="36.11111111111111" width="3.3082245268421557"/>
	</edge>
	<edge from="13" function="normal" id="3525" length="17.280435272672808" numLanes="3" priority="1" speed="36.11111111111111" spreadType="center" to="14">
		<lane allow="moped bicycle pedestrian custom1 trailer evehicle rail_urban ship private truck vip custom2 authority delivery rail_electric taxi tram army hov coach motorcycle passenger bus rail emergency" index="0" length="17.280435272672808" shape="0.90125,-24.3141 9.62855,-28.60915 16.41685,-31.94995" speed="36.11111111111111" width="3.873902747875843"/>
		<lane allow="moped bicycle pedestrian custom1 trailer evehicle rail_urban ship private truck vip custom2 authority delivery rail_electric taxi tram army hov coach motorcycle passenger bus rail emergency" index="1" length="17.280435272672808" shape="2.5243,-20.986 11.25145,-25.27955 18.0507,-28.6246" speed="36.11111111111111" width="3.5117895381130126"/>
		<lane allow="moped bicycle pedestrian custom1 trailer evehicle rail_urban ship private truck vip custom2 authority delivery rail_electric taxi tram army hov coach motorcycle passenger bus rail emergency" index="2" length="17.280435272672808" shape="4.0691500000000005,-17.8944 12.74795,-22.163 19.575499999999998,-25.5211" speed="36.11111111111111" width="3.3794967495175965"/>
	</edge>
	<edge from="5" function="normal" id="3600" length="24.19746751136553" numLanes="1" priority="1" speed="36.11111111111111" spreadType="center" to="15">
		<lane allow="moped bicycle pedestrian custom1 trailer evehicle rail_urban ship private vip custom2 authority delivery rail_electric taxi tram army hov coach motorcycle passenger rail emergency" index="0" length="24.19746751136553" shape="-43.03075,2.40415 -38.54245,0.009200000000000097 -36.54945,-1.1809 -34.9464,-2.0915 -34.2033,-2.57145 -33.7792,-3.1590499999999997 -33.7434,-3.966 -34.1506,-5.3776 -34.951499999999996,-7.34375 -35.93195,-9.4421 -38.72485,-15.44405" speed="36.11111111111111" width="3.232186618993401"/>
	</edge>
	<edge from="15" function="normal" id="3542" length="74.2461753523541" numLanes="3" priority="1" speed="36.11111111111111" spreadType="center" to="16">
		<lane allow="moped bicycle pedestrian custom1 trailer evehicle rail_urban ship private truck vip custom2 authority delivery rail_electric taxi tram army hov coach motorcycle passenger bus rail emergency" index="0" length="74.2461753523541" shape="-38.72485,-15.44405 -42.88615,-23.98275 -46.939400000000006,-32.91275 -50.71145,-41.63125 -54.336200000000005,-50.8752 -58.051199999999994,-59.933049999999994 -61.73485,-68.96065 -65.41890000000001,-78.0191 -67.70595,-83.8151" speed="36.11111111111111" width="2.8235974571457674"/>
		<lane allow="moped bicycle pedestrian custom1 trailer evehicle rail_urban ship private truck vip custom2 authority delivery rail_electric taxi tram army hov coach motorcycle passenger bus rail emergency" index="1" length="74.2461753523541" shape="-35.8812,-16.936700000000002 -40.1246,-25.4915 -44.20675,-34.2749 -47.9474,-42.9631 -51.6014,-52.0834 -55.2545,-61.142250000000004 -58.905950000000004,-70.0779 -62.497249999999994,-79.1377 -64.8885,-85.26140000000001" speed="36.11111111111111" width="2.9693589611227513"/>
		<lane allow="moped bicycle pedestrian custom1 trailer evehicle rail_urban ship private truck vip custom2 authority delivery rail_electric taxi tram army hov coach motorcycle passenger bus rail emergency" index="2" length="74.2461753523541" shape="-33.23315,-18.32665 -37.45595,-27.0066 -41.506299999999996,-35.728899999999996 -45.27785,-44.4167 -48.7727,-53.216049999999996 -52.428200000000004,-62.44415 -56.08005,-71.41065 -59.54685,-80.41055 -62.058,-86.71445" speed="36.11111111111111" width="2.962201547835663"/>
	</edge>
	<edge from="17" function="normal" id="3532" length="13.634900230131375" numLanes="2" priority="1" speed="36.11111111111111" spreadType="center" to="18">
		<lane allow="moped bicycle pedestrian custom1 trailer evehicle rail_urban ship private truck vip custom2 authority delivery rail_electric taxi tram army hov coach motorcycle passenger bus rail emergency" index="0" length="13.634900230131375" shape="24.1212,-16.26925 17.18855,-12.880400000000002 11.844149999999999,-10.26785" speed="36.11111111111111" width="3.6072313177837643"/>
		<lane allow="moped bicycle pedestrian custom1 trailer evehicle rail_urban ship private truck vip custom2 authority delivery rail_electric taxi tram army hov coach motorcycle passenger bus rail emergency" index="1" length="13.634900230131375" shape="22.516550000000002,-19.5352 15.65805,-16.182000000000002 10.267199999999999,-13.54655" speed="36.11111111111111" width="3.623546501702443"/>
	</edge>
	<edge from="18" function="normal" id="3534" length="6.575577396130318" numLanes="3" priority="1" speed="36.11111111111111" spreadType="center" to="19">
		<lane allow="moped bicycle pedestrian custom1 trailer evehicle rail_urban ship private truck vip custom2 authority delivery rail_electric taxi tram army hov coach motorcycle passenger bus rail emergency" index="0" length="6.575577396130318" shape="11.844149999999999,-10.26785 7.4213000000000005,-4.246" speed="36.11111111111111" width="3.245737241367514"/>
		<lane allow="moped bicycle pedestrian custom1 trailer evehicle rail_urban ship private truck vip custom2 authority delivery rail_electric taxi tram army hov coach motorcycle passenger bus rail emergency" index="1" length="6.575577396130318" shape="11.844149999999999,-10.26785 5.93215,-7.32785" speed="36.11111111111111" width="3.6024336135451542"/>
		<lane allow="moped bicycle pedestrian custom1 trailer evehicle rail_urban ship private truck vip custom2 authority delivery rail_electric taxi tram army hov coach motorcycle passenger bus rail emergency" index="2" length="6.575577396130318" shape="10.267199999999999,-13.54655 4.37915,-10.619250000000001" speed="36.11111111111111" width="3.6713079753679074"/>
	</edge>
	<edge from="19" function="normal" id="3536" length="6.608363657139338" numLanes="3" priority="1" speed="36.11111111111111" spreadType="center" to="20">
		<lane allow="moped bicycle pedestrian custom1 trailer evehicle rail_urban ship private truck vip custom2 authority delivery rail_electric taxi tram army hov coach motorcycle passenger bus rail emergency" index="0" length="6.608363657139338" shape="7.4213000000000005,-4.246 1.4417499999999999,-1.35655" speed="36.11111111111111" width="3.190167196245363"/>
		<lane allow="moped bicycle pedestrian custom1 trailer evehicle rail_urban ship private truck vip custom2 authority delivery rail_electric taxi tram army hov coach motorcycle passenger bus rail emergency" index="1" length="6.608363657139338" shape="5.93215,-7.32785 -0.008000000000000007,-4.3831" speed="36.11111111111111" width="3.5215687697388507"/>
		<lane allow="moped bicycle pedestrian custom1 trailer evehicle rail_urban ship private truck vip custom2 authority delivery rail_electric taxi tram army hov coach motorcycle passenger bus rail emergency" index="2" length="6.608363657139338" shape="4.37915,-10.619250000000001 -1.5309,-7.662599999999999" speed="36.11111111111111" width="3.6773714878973007"/>
	</edge>
	<edge from="20" function="normal" id="3620" length="6.669397413559938" numLanes="2" priority="1" speed="36.11111111111111" spreadType="center" to="21">
		<lane allow="moped bicycle pedestrian custom1 trailer evehicle rail_urban ship private truck vip custom2 authority delivery rail_electric taxi tram army hov coach motorcycle passenger bus rail emergency" index="0" length="6.669397413559938" shape="-0.008000000000000007,-4.3831 -5.9855,-1.4249999999999998" speed="36.11111111111111" width="3.4558219456447694"/>
		<lane allow="moped bicycle pedestrian custom1 trailer evehicle rail_urban ship private truck vip custom2 authority delivery rail_electric taxi tram army hov coach motorcycle passenger bus rail emergency" index="1" length="6.669397413559938" shape="-1.5309,-7.662599999999999 -7.538349999999999,-4.6495" speed="36.11111111111111" width="3.702039012490279"/>
	</edge>
	<edge from="21" function="normal" id="3662" length="24.644895567957" numLanes="2" priority="1" speed="36.11111111111111" spreadType="center" to="22">
		<lane allow="moped bicycle pedestrian custom1 trailer evehicle rail_urban ship private truck vip custom2 authority delivery rail_electric taxi tram army hov coach motorcycle passenger bus rail emergency" index="0" length="24.644895567957" shape="-5.9855,-1.4249999999999998 -8.80205,-0.03115000000000001 -11.57885,1.343 -14.22825,2.6542000000000003 -16.95035,4.00135 -19.822049999999997,5.42255 -22.61085,6.8027 -25.3129,8.139899999999999 -28.0735,9.5062" speed="36.11111111111111" width="3.2133408160355486"/>
		<lane allow="moped bicycle pedestrian custom1 trailer evehicle rail_urban ship private truck vip custom2 authority delivery rail_electric taxi tram army hov coach motorcycle passenger bus rail emergency" index="1" length="24.644895567957" shape="-7.538349999999999,-4.6495 -10.342849999999999,-3.2428 -13.1034,-1.85895 -15.75145,-0.5303 -18.46815,0.83115 -21.36995,2.28875 -24.1387,3.6788499999999997 -26.82855,5.02805 -29.6251,6.4311" speed="36.11111111111111" width="3.6754043750314054"/>
	</edge>
	<edge from="22" function="normal" id="3640" length="10.509859510002974" numLanes="2" priority="1" speed="36.11111111111111" spreadType="center" to="23">
		<lane allow="moped bicycle pedestrian custom1 trailer evehicle rail_urban ship private truck vip custom2 authority delivery rail_electric taxi tram army hov coach motorcycle passenger bus rail emergency" index="0" length="10.509859510002974" shape="-28.0735,9.5062 -37.907,14.3276" speed="36.11111111111111" width="3.167378581729695"/>
		<lane allow="moped bicycle pedestrian custom1 trailer evehicle rail_urban ship private truck vip custom2 authority delivery rail_electric taxi tram army hov coach motorcycle passenger bus rail emergency" index="1" length="10.509859510002974" shape="-29.6251,6.4311 -39.042699999999996,11.096499999999999" speed="36.11111111111111" width="3.6754043750314054"/>
	</edge>
	<edge from="23" function="normal" id="3517" length="14.496753904957336" numLanes="3" priority="1" speed="36.11111111111111" spreadType="center" to="24">
		<lane allow="moped bicycle pedestrian custom1 trailer evehicle rail_urban ship private truck vip custom2 authority delivery rail_electric taxi tram army hov coach motorcycle passenger bus rail emergency" index="0" length="14.496753904957336" shape="-36.1897,18.78155 -45.4032,23.220950000000002 -49.151700000000005,25.2648" speed="36.11111111111111" width="5.130906839926057"/>
		<lane allow="moped bicycle pedestrian custom1 trailer evehicle rail_urban ship private truck vip custom2 authority delivery rail_electric taxi tram army hov coach motorcycle passenger bus rail emergency" index="1" length="14.496753904957336" shape="-37.907,14.3276 -47.29745,19.36965 -50.98295,21.573349999999998" speed="36.11111111111111" width="3.110520139783699"/>
		<lane allow="moped bicycle pedestrian custom1 trailer evehicle rail_urban ship private truck vip custom2 authority delivery rail_electric taxi tram army hov coach motorcycle passenger bus rail emergency" index="2" length="14.496753904957336" shape="-39.042699999999996,11.096499999999999 -48.8244,16.34415 -52.4898,18.535800000000002" speed="36.11111111111111" width="3.664585112942526"/>
	</edge>
	<edge from="20" function="normal" id="3668" length="38.24329000786905" numLanes="1" priority="1" speed="36.11111111111111" spreadType="center" to="15">
		<lane allow="moped bicycle pedestrian custom1 trailer evehicle rail_urban ship private vip custom2 authority delivery rail_electric taxi tram army hov coach motorcycle passenger rail emergency" index="0" length="38.24329000786905" shape="-1.5309,-7.662599999999999 -4.86795,-6.5539000000000005 -7.802099999999999,-5.74705 -10.29775,-4.9994499999999995 -12.7131,-4.6959 -14.914950000000001,-4.61095 -16.45115,-4.7393 -18.4214,-4.9461 -20.0255,-5.223450000000001 -21.973300000000002,-5.5367999999999995 -23.782,-6.2938 -25.3179,-7.543900000000001 -26.757550000000002,-9.4535 -29.45785,-13.131250000000001 -33.23315,-18.32665" speed="36.11111111111111" width="3.0119886487169913"/>
	</edge>
	<edge from="20" function="normal" id="3602" length="16.40731935125664" numLanes="1" priority="1" speed="36.11111111111111" spreadType="center" to="6">
		<lane allow="moped bicycle pedestrian custom1 trailer evehicle rail_urban ship private vip custom2 authority delivery rail_electric taxi tram army hov coach motorcycle passenger rail emergency" index="0" length="16.40731935125664" shape="1.4417499999999999,-1.35655 -0.41085000000000005,-0.07240000000000002 -1.5609000000000002,1.1442999999999999 -2.4886,2.7733 -3.0660499999999997,4.582 -3.1239500000000002,5.95245 -2.7615,8.078700000000001 -1.9103999999999999,10.453949999999999 -0.8613999999999999,12.8918" speed="36.11111111111111" width="2.9347200002725984"/>
	</edge>
	<edge from="9" function="normal" id="3718" length="22.831237741532014" numLanes="1" priority="1" speed="36.11111111111111" spreadType="center" to="25">
		<lane allow="moped bicycle pedestrian custom1 trailer evehicle rail_urban ship private vip custom2 authority delivery rail_electric taxi tram army hov coach motorcycle passenger rail emergency" index="0" length="22.831237741532014" shape="23.8057,62.6462 26.4274,66.0179 28.492150000000002,67.9331 31.085949999999997,69.10679999999999 35.71425,69.5107 43.9642,69.64795000000001" speed="36.11111111111111" width="3.157633506282831"/>
	</edge>
	<edge from="25" function="normal" id="3500" length="9.586145870473706" numLanes="1" priority="1" speed="36.11111111111111" spreadType="center" to="26">
		<lane allow="moped bicycle pedestrian custom1 trailer evehicle rail_urban ship private truck vip custom2 authority delivery rail_electric taxi tram army hov coach motorcycle passenger bus rail emergency" index="0" length="9.586145870473706" shape="43.9642,69.64795000000001 53.545,69.32785" speed="36.11111111111111" width="5.3580703924080675"/>
	</edge>
	<edge from="27" function="normal" id="3555" length="8.747302513489522" numLanes="4" priority="1" speed="36.11111111111111" spreadType="center" to="28">
		<lane allow="moped bicycle pedestrian custom1 trailer evehicle rail_urban ship private truck vip custom2 authority delivery rail_electric taxi tram army hov coach motorcycle passenger bus rail emergency" index="0" length="8.747302513489522" shape="-49.3865,-93.21940000000001 -45.4103,-85.42805" speed="36.11111111111111" width="3.5111446353005746"/>
		<lane allow="moped bicycle pedestrian custom1 trailer evehicle rail_urban ship private truck vip custom2 authority delivery rail_electric taxi tram army hov coach motorcycle passenger bus rail emergency" index="1" length="8.747302513489522" shape="-52.330299999999994,-91.7082 -48.2999,-83.82625" speed="36.11111111111111" width="2.9942633818687394"/>
		<lane allow="moped bicycle pedestrian custom1 trailer evehicle rail_urban ship private truck vip custom2 authority delivery rail_electric taxi tram army hov coach motorcycle passenger bus rail emergency" index="2" length="8.747302513489522" shape="-55.029799999999994,-90.32245 -50.9416,-82.2891" speed="36.11111111111111" width="3.0122116393108884"/>
		<lane allow="moped bicycle pedestrian custom1 trailer evehicle rail_urban ship private truck vip custom2 authority delivery rail_electric taxi tram army hov coach motorcycle passenger bus rail emergency" index="3" length="8.747302513489522" shape="-57.80775,-88.89635000000001 -53.6268,-80.8507" speed="36.11111111111111" width="3.0805742451692346"/>
	</edge>
	<edge from="28" function="normal" id="3559" length="17.69293538209547" numLanes="5" priority="1" speed="36.11111111111111" spreadType="center" to="29">
		<lane allow="moped bicycle pedestrian custom1 trailer evehicle rail_urban ship private truck vip custom2 authority delivery rail_electric taxi tram army hov coach motorcycle passenger bus rail emergency" index="0" length="17.69293538209547" shape="-45.4103,-85.42805 -42.0646,-78.46039999999999 -37.55555,-69.38159999999999" speed="36.11111111111111" width="3.5111446353005746"/>
		<lane allow="moped bicycle pedestrian custom1 trailer evehicle rail_urban ship private truck vip custom2 authority delivery rail_electric taxi tram army hov coach motorcycle passenger bus rail emergency" index="1" length="17.69293538209547" shape="-48.2999,-83.82625 -44.905100000000004,-76.9011 -40.3448,-67.79055" speed="36.11111111111111" width="2.891120158346933"/>
		<lane allow="moped bicycle pedestrian custom1 trailer evehicle rail_urban ship private truck vip custom2 authority delivery rail_electric taxi tram army hov coach motorcycle passenger bus rail emergency" index="2" length="17.69293538209547" shape="-50.9416,-82.2891 -47.5951,-75.50174999999999 -43.034800000000004,-66.39125000000001" speed="36.11111111111111" width="3.0122116393108884"/>
		<lane allow="moped bicycle pedestrian custom1 trailer evehicle rail_urban ship private truck vip custom2 authority delivery rail_electric taxi tram army hov coach motorcycle passenger bus rail emergency" index="3" length="17.69293538209547" shape="-53.6268,-80.8507 -50.265950000000004,-74.14054999999999 -45.705600000000004,-65.03" speed="36.11111111111111" width="2.8198292501497373"/>
		<lane allow="moped bicycle pedestrian custom1 trailer evehicle rail_urban ship private truck vip custom2 authority delivery rail_electric taxi tram army hov coach motorcycle passenger rail emergency" index="4" length="17.69293538209547" shape="-53.6268,-80.8507 -51.794200000000004,-73.11555 -48.31335,-63.57725" speed="36.11111111111111" width="2.9068515975192177"/>
	</edge>
	<edge from="29" function="normal" id="3568" length="47.08668512312134" numLanes="5" priority="1" speed="36.11111111111111" spreadType="center" to="30">
		<lane allow="moped bicycle pedestrian custom1 trailer evehicle rail_urban ship private truck vip custom2 authority delivery rail_electric taxi tram army hov coach motorcycle passenger bus rail emergency" index="0" length="47.08668512312134" shape="-37.55555,-69.38159999999999 -33.35655,-60.9266 -29.0989,-52.35205 -24.660449999999997,-43.41605 -20.36185,-34.9551 -16.17635,-27.306" speed="36.11111111111111" width="3.346148869969776"/>