<?xml version="1.0" encoding="UTF-8"?>

<!-- generated on Fri Dec 18 16:01:01 2020 by Eclipse SUMO netconvert Version 1.8.0
<configuration xmlns:xsi="http://www.w3.org/2001/XMLSchema-instance" xsi:noNamespaceSchemaLocation="http://sumo.dlr.de/xsd/netconvertConfiguration.xsd">

    <input>
        <node-files value="./converted_scenarios/NGSIM/Lankershim/USA_Lanker-2_3_I-1-1/nodes.net.xml"/>
        <edge-files value="./converted_scenarios/NGSIM/Lankershim/USA_Lanker-2_3_I-1-1/edges.net.xml"/>
        <connection-files value="./converted_scenarios/NGSIM/Lankershim/USA_Lanker-2_3_I-1-1/_connections.net.xml"/>
        <tllogic-files value="./converted_scenarios/NGSIM/Lankershim/USA_Lanker-2_3_I-1-1/_tll.net.xml"/>
    </input>

    <output>
        <output-file value="./converted_scenarios/NGSIM/Lankershim/USA_Lanker-2_3_I-1-1/USA_Lanker-2_3_I-1-1.net.xml"/>
    </output>

    <processing>
        <plain.extend-edge-shape value="true"/>
        <geometry.remove.keep-edges.explicit value="true"/>
        <geometry.avoid-overlap value="true"/>
        <offset.disable-normalization value="true"/>
    </processing>

    <junctions>
        <no-turnarounds value="true"/>
        <junctions.internal-link-detail value="20"/>
    </junctions>

    <report>
        <aggregate-warnings value="5"/>
    </report>

    <random_number>
        <seed value="1234"/>
    </random_number>

</configuration>
-->

<net version="1.6" junctionCornerDetail="5" junctionLinkDetail="20" limitTurnSpeed="5.50" xmlns:xsi="http://www.w3.org/2001/XMLSchema-instance" xsi:noNamespaceSchemaLocation="http://sumo.dlr.de/xsd/net_file.xsd">

    <location netOffset="0.00,0.00" convBoundary="-64.88,-91.04,53.76,95.52" origBoundary="-67.71,-93.22,53.76,98.14" projParameter="!"/>

    <edge id=":11_0" function="internal">
        <lane id=":11_0_0" index="0" disallow="rail_fast" speed="36.11" length="0.26" width="3.31" shape="-32.48,-3.08 -32.70,-2.97"/>
        <lane id=":11_0_1" index="1" disallow="rail_fast" speed="36.11" length="0.26" width="3.11" shape="-31.01,-0.22 -31.24,-0.10"/>
    </edge>
    <edge id=":12_0" function="internal">
        <lane id=":12_0_0" index="0" disallow="rail_fast" speed="36.11" length="3.06" width="3.50" shape="-13.33,-13.04 -10.59,-14.44"/>
        <lane id=":12_0_1" index="1" disallow="rail_fast" speed="36.11" length="3.06" width="3.31" shape="-11.82,-10.00 -9.09,-11.37"/>
    </edge>
    <edge id=":13_0" function="internal">
        <lane id=":13_0_0" index="0" disallow="bus truck rail_fast" speed="11.02" length="10.30" width="3.87" shape="-7.93,-23.40 -7.27,-23.24 -6.66,-23.10 -6.11,-22.97 -5.60,-22.87 -5.13,-22.80 -4.69,-22.74 -4.28,-22.71 -3.88,-22.70 -3.50,-22.72 -3.12,-22.76 -2.74,-22.83 -2.36,-22.93 -1.96,-23.05 -1.54,-23.20 -1.10,-23.38 -0.62,-23.59 -0.11,-23.83 0.45,-24.09 1.06,-24.39"/>
        <lane id=":13_0_1" index="1" disallow="bus truck rail_fast" speed="12.20" length="10.30" width="3.51" shape="-8.05,-19.85 -7.25,-19.66 -6.53,-19.50 -5.86,-19.36 -5.25,-19.25 -4.69,-19.16 -4.17,-19.10 -3.67,-19.06 -3.20,-19.06 -2.74,-19.08 -2.29,-19.13 -1.84,-19.21 -1.39,-19.33 -0.91,-19.47 -0.41,-19.65 0.12,-19.86 0.68,-20.11 1.30,-20.39 1.97,-20.72 2.70,-21.07"/>
    </edge>
    <edge id=":13_2" function="internal">
        <lane id=":13_2_0" index="0" disallow="bus truck rail_fast" speed="36.11" length="11.23" width="3.51" shape="-7.26,-15.83 2.70,-21.07"/>
        <lane id=":13_2_1" index="1" disallow="bus truck rail_fast" speed="36.11" length="11.23" width="3.38" shape="-5.52,-12.51 -4.84,-12.99 -4.22,-13.43 -3.66,-13.81 -3.14,-14.15 -2.67,-14.46 -2.23,-14.73 -1.81,-14.98 -1.41,-15.21 -1.02,-15.43 -0.62,-15.64 -0.22,-15.84 0.19,-16.04 0.63,-16.25 1.11,-16.48 1.62,-16.72 2.18,-16.98 2.79,-17.28 3.48,-17.60 4.23,-17.97"/>
    </edge>
    <edge id=":13_4" function="internal">
        <lane id=":13_4_0" index="0" disallow="rail_fast" speed="36.11" length="13.86" width="3.51" shape="-9.71,-14.88 2.70,-21.07"/>
        <lane id=":13_4_1" index="1" disallow="rail_fast" speed="36.11" length="13.86" width="3.38" shape="-8.19,-11.82 4.23,-17.97"/>
    </edge>
    <edge id=":15_0" function="internal">
        <lane id=":15_0_0" index="0" disallow="rail_fast" speed="36.11" length="19.07" width="2.82" shape="-32.16,-2.21 -40.61,-19.31"/>
        <lane id=":15_0_1" index="1" disallow="rail_fast" speed="36.11" length="19.07" width="2.97" shape="-29.39,-3.64 -37.78,-20.76"/>
        <lane id=":15_0_2" index="2" disallow="rail_fast" speed="36.11" length="19.07" width="2.96" shape="-26.69,-5.03 -35.09,-22.14"/>
    </edge>
    <edge id=":15_3" function="internal">
        <lane id=":15_3_0" index="0" disallow="bus truck rail_fast" speed="13.68" length="23.17" width="2.96" shape="-20.27,-5.26 -21.03,-5.42 -21.79,-5.67 -22.55,-5.99 -23.31,-6.39 -24.08,-6.88 -24.85,-7.44 -25.62,-8.09 -26.39,-8.82 -27.17,-9.62 -27.95,-10.51 -28.73,-11.48 -29.52,-12.53 -30.31,-13.66 -31.10,-14.87 -31.89,-16.17 -32.69,-17.54 -33.48,-18.99 -34.28,-20.53 -35.09,-22.14"/>
    </edge>
    <edge id=":15_4" function="internal">
        <lane id=":15_4_0" index="0" disallow="bus truck rail_fast" speed="36.11" length="4.30" width="2.82" shape="-38.72,-15.44 -40.61,-19.31"/>
    </edge>
    <edge id=":18_0" function="internal">
        <lane id=":18_0_0" index="0" disallow="rail_fast" speed="14.45" length="8.28" width="3.25" shape="15.49,-12.05 14.95,-11.79 14.46,-11.54 14.02,-11.32 13.62,-11.10 13.26,-10.90 12.93,-10.71 12.63,-10.52 12.35,-10.32 12.09,-10.12 11.84,-9.91 11.60,-9.68 11.36,-9.44 11.12,-9.17 10.87,-8.88 10.61,-8.55 10.33,-8.20 10.03,-7.80 9.71,-7.36 9.35,-6.87"/>
        <lane id=":18_0_1" index="1" disallow="rail_fast" speed="36.11" length="8.28" width="3.60" shape="15.49,-12.05 8.26,-8.49"/>
        <lane id=":18_0_2" index="2" disallow="rail_fast" speed="36.11" length="8.28" width="3.67" shape="13.90,-15.32 6.20,-11.52"/>
    </edge>
    <edge id=":19_0" function="internal">
        <lane id=":19_0_0" index="0" disallow="rail_fast" speed="9.74" length="3.41" width="3.19" shape="8.01,-5.05 7.85,-4.84 7.70,-4.65 7.55,-4.48 7.42,-4.33 7.28,-4.21 7.16,-4.10 7.03,-4.00 6.90,-3.92 6.77,-3.84 6.64,-3.77 6.50,-3.71 6.36,-3.65 6.20,-3.59 6.04,-3.52 5.86,-3.45 5.66,-3.37 5.45,-3.28 5.23,-3.18 4.98,-3.07"/>
        <lane id=":19_0_1" index="1" disallow="rail_fast" speed="36.11" length="3.41" width="3.52" shape="6.54,-7.63 3.51,-6.12"/>
        <lane id=":19_0_2" index="2" disallow="rail_fast" speed="36.11" length="3.41" width="3.68" shape="4.73,-10.79 1.93,-9.39"/>
    </edge>
    <edge id=":2_0" function="internal">
        <lane id=":2_0_0" index="0" disallow="bus truck rail_fast" speed="8.75" length="5.40" width="3.35" shape="44.57,74.69 44.18,74.71 43.82,74.72 43.50,74.74 43.20,74.76 42.92,74.79 42.67,74.83 42.43,74.87 42.21,74.92 42.00,74.98 41.80,75.06 41.60,75.15 41.40,75.26 41.19,75.38 40.98,75.53 40.76,75.69 40.53,75.87 40.28,76.08 40.01,76.31 39.71,76.57"/>
    </edge>
    <edge id=":20_0" function="internal">
        <lane id=":20_0_0" index="0" disallow="bus truck rail_fast" speed="14.27" length="3.68" width="2.93" shape="2.36,-1.80 2.11,-1.68 1.89,-1.58 1.68,-1.48 1.50,-1.40 1.33,-1.32 1.17,-1.24 1.02,-1.17 0.89,-1.10 0.76,-1.03 0.63,-0.95 0.51,-0.87 0.38,-0.79 0.26,-0.69 0.13,-0.58 -0.01,-0.46 -0.16,-0.32 -0.32,-0.16 -0.49,0.01 -0.68,0.21"/>
    </edge>
    <edge id=":20_1" function="internal">
        <lane id=":20_1_0" index="0" disallow="rail_fast" speed="36.11" length="4.87" width="3.46" shape="0.90,-4.84 -3.45,-2.68"/>
        <lane id=":20_1_1" index="1" disallow="rail_fast" speed="36.11" length="4.87" width="3.70" shape="-0.66,-8.10 -5.02,-5.91"/>
    </edge>
    <edge id=":20_3" function="internal">
        <lane id=":20_3_0" index="0" disallow="bus truck rail_fast" speed="36.11" length="4.93" width="3.01" shape="-0.66,-8.10 -0.99,-7.94 -1.28,-7.79 -1.56,-7.66 -1.80,-7.55 -2.03,-7.44 -2.24,-7.35 -2.44,-7.27 -2.63,-7.20 -2.81,-7.13 -3.00,-7.07 -3.19,-7.01 -3.38,-6.95 -3.59,-6.90 -3.81,-6.84 -4.05,-6.77 -4.31,-6.70 -4.60,-6.62 -4.93,-6.54 -5.28,-6.44"/>
    </edge>
    <edge id=":21_0" function="internal">
        <lane id=":21_0_0" index="0" disallow="rail_fast" speed="36.11" length="3.05" width="3.21" shape="-4.62,-2.10 -7.35,-0.75"/>
        <lane id=":21_0_1" index="1" disallow="rail_fast" speed="36.11" length="3.05" width="3.68" shape="-6.20,-5.32 -8.92,-3.95"/>
    </edge>
    <edge id=":22_0" function="internal">
        <lane id=":22_0_0" index="0" disallow="rail_fast" speed="36.11" length="10.83" width="3.17" shape="-18.87,4.95 -28.58,9.76"/>
        <lane id=":22_0_1" index="1" disallow="rail_fast" speed="36.11" length="10.83" width="3.68" shape="-20.44,1.82 -30.12,6.68"/>
    </edge>
    <edge id=":22_2" function="internal">
        <lane id=":22_2_0" index="0" disallow="bus truck rail_fast" speed="9.83" length="11.33" width="3.68" shape="-23.49,-1.95 -23.61,-1.34 -23.76,-0.75 -23.93,-0.18 -24.13,0.38 -24.35,0.92 -24.60,1.44 -24.88,1.95 -25.17,2.44 -25.50,2.91 -25.85,3.36 -26.22,3.80 -26.62,4.22 -27.05,4.62 -27.49,5.01 -27.97,5.37 -28.47,5.73 -28.99,6.06 -29.54,6.38 -30.12,6.68"/>
    </edge>
    <edge id=":23_0" function="internal">
        <lane id=":23_0_0" index="0" disallow="bus truck rail_fast" speed="36.11" length="4.83" width="5.13" shape="-42.74,20.91 -38.07,19.69"/>
    </edge>
    <edge id=":23_1" function="internal">
        <lane id=":23_1_0" index="0" disallow="rail_fast" speed="36.11" length="4.52" width="3.11" shape="-35.83,13.31 -39.86,15.38"/>
        <lane id=":23_1_1" index="1" disallow="rail_fast" speed="36.11" length="4.52" width="3.66" shape="-37.15,10.16 -41.16,12.23"/>
    </edge>
    <edge id=":25_0" function="internal">
        <lane id=":25_0_0" index="0" disallow="bus truck rail_fast" speed="36.11" length="2.87" width="5.36" shape="42.53,69.62 45.40,69.60"/>
    </edge>
    <edge id=":28_0" function="internal">
        <lane id=":28_0_0" index="0" disallow="rail_fast" speed="36.11" length="7.96" width="3.51" shape="-46.95,-88.45 -43.34,-81.12"/>
        <lane id=":28_0_1" index="1" disallow="rail_fast" speed="36.11" length="7.96" width="2.89" shape="-49.85,-86.86 -46.26,-79.67"/>
        <lane id=":28_0_2" index="2" disallow="rail_fast" speed="36.11" length="7.96" width="3.01" shape="-52.53,-85.40 -48.99,-78.33"/>
        <lane id=":28_0_3" index="3" disallow="rail_fast" speed="36.11" length="7.96" width="2.82" shape="-55.23,-83.93 -51.69,-76.99"/>
        <lane id=":28_0_4" index="4" disallow="bus rail_fast" speed="36.11" length="7.96" width="2.91" shape="-55.23,-83.93 -54.96,-83.41 -54.72,-82.94 -54.50,-82.51 -54.31,-82.12 -54.14,-81.76 -53.99,-81.42 -53.86,-81.11 -53.74,-80.80 -53.63,-80.51 -53.53,-80.21 -53.43,-79.91 -53.34,-79.60 -53.26,-79.27 -53.17,-78.91 -53.07,-78.52 -52.97,-78.10 -52.86,-77.63 -52.74,-77.11 -52.61,-76.54"/>
    </edge>
    <edge id=":29_0" function="internal">
        <lane id=":29_0_0" index="0" disallow="rail_fast" speed="36.11" length="3.88" width="3.35" shape="-38.56,-71.41 -36.86,-67.99"/>
        <lane id=":29_0_1" index="1" disallow="rail_fast" speed="36.11" length="3.88" width="2.89" shape="-41.42,-69.93 -39.69,-66.49"/>
        <lane id=":29_0_2" index="2" disallow="rail_fast" speed="36.11" length="3.88" width="3.08" shape="-44.11,-68.53 -42.37,-65.07"/>
        <lane id=":29_0_3" index="3" disallow="rail_fast" speed="36.11" length="3.88" width="2.82" shape="-46.77,-67.15 -45.02,-63.66"/>
        <lane id=":29_0_4" index="4" disallow="bus rail_fast" speed="36.11" length="3.88" width="3.05" shape="-49.16,-65.91 -49.06,-65.63 -48.97,-65.38 -48.89,-65.15 -48.82,-64.95 -48.75,-64.76 -48.69,-64.59 -48.63,-64.43 -48.57,-64.28 -48.52,-64.13 -48.46,-63.98 -48.40,-63.84 -48.34,-63.69 -48.27,-63.53 -48.19,-63.36 -48.11,-63.18 -48.02,-62.98 -47.91,-62.77 -47.80,-62.53 -47.67,-62.26"/>
    </edge>
    <edge id=":30_0" function="internal">
        <lane id=":30_0_0" index="0" disallow="bus truck rail_fast" speed="10.23" length="10.24" width="3.11" shape="-17.14,-29.06 -16.90,-28.66 -16.64,-28.27 -16.36,-27.89 -16.06,-27.53 -15.74,-27.18 -15.39,-26.84 -15.02,-26.51 -14.62,-26.20 -14.21,-25.90 -13.77,-25.62 -13.31,-25.34 -12.83,-25.08 -12.32,-24.83 -11.79,-24.60 -11.24,-24.38 -10.67,-24.17 -10.07,-23.97 -9.45,-23.79 -8.81,-23.62"/>
    </edge>
    <edge id=":30_1" function="internal">
        <lane id=":30_1_0" index="0" disallow="bus truck rail_fast" speed="11.58" length="11.05" width="3.13" shape="-20.19,-27.46 -19.83,-26.74 -19.49,-26.11 -19.16,-25.54 -18.84,-25.03 -18.52,-24.58 -18.20,-24.18 -17.88,-23.82 -17.55,-23.50 -17.21,-23.21 -16.84,-22.95 -16.45,-22.71 -16.04,-22.48 -15.59,-22.26 -15.10,-22.05 -14.57,-21.83 -13.99,-21.60 -13.37,-21.35 -12.68,-21.08 -11.94,-20.79"/>
    </edge>
    <edge id=":30_2" function="internal">
        <lane id=":30_2_0" index="0" disallow="rail_fast" speed="36.11" length="10.45" width="3.12" shape="-20.19,-27.46 -15.63,-17.90"/>
        <lane id=":30_2_1" index="1" disallow="rail_fast" speed="36.11" length="10.45" width="3.06" shape="-22.92,-26.02 -18.42,-16.58"/>
        <lane id=":30_2_2" index="2" disallow="rail_fast" speed="36.11" length="10.45" width="2.98" shape="-25.62,-24.60 -21.16,-15.30"/>
    </edge>
    <edge id=":30_5" function="internal">
        <lane id=":30_5_0" index="0" disallow="bus truck rail_fast" speed="36.11" length="10.20" width="2.87" shape="-28.31,-23.19 -27.97,-22.50 -27.66,-21.88 -27.38,-21.32 -27.13,-20.82 -26.90,-20.35 -26.69,-19.92 -26.49,-19.52 -26.31,-19.13 -26.13,-18.76 -25.96,-18.39 -25.80,-18.01 -25.64,-17.62 -25.47,-17.21 -25.30,-16.77 -25.12,-16.29 -24.92,-15.77 -24.72,-15.19 -24.49,-14.55 -24.25,-13.84"/>
    </edge>
    <edge id=":31_0" function="internal">
        <lane id=":31_0_0" index="0" disallow="rail_fast" speed="36.11" length="3.22" width="3.12" shape="-14.74,-16.04 -13.36,-13.14"/>
        <lane id=":31_0_1" index="1" disallow="rail_fast" speed="36.11" length="3.22" width="3.06" shape="-17.50,-14.64 -16.11,-11.74"/>
        <lane id=":31_0_2" index="2" disallow="rail_fast" speed="36.11" length="3.22" width="2.95" shape="-20.19,-13.27 -18.80,-10.36"/>
    </edge>
    <edge id=":32_0" function="internal">
        <lane id=":32_0_0" index="0" disallow="rail_fast" speed="36.11" length="2.64" width="3.14" shape="-7.31,-0.55 -6.16,1.84"/>
        <lane id=":32_0_1" index="1" disallow="rail_fast" speed="36.11" length="2.64" width="3.10" shape="-10.12,0.81 -8.98,3.20"/>
        <lane id=":32_0_2" index="2" disallow="rail_fast" speed="36.11" length="2.64" width="2.93" shape="-12.84,2.13 -11.70,4.51"/>
    </edge>
    <edge id=":34_0" function="internal">
        <lane id=":34_0_0" index="0" disallow="rail_fast" speed="36.11" length="3.05" width="2.78" shape="5.37,73.14 4.01,70.41"/>
        <lane id=":34_0_1" index="1" disallow="rail_fast" speed="36.11" length="3.05" width="3.00" shape="7.97,71.88 6.62,69.14"/>
        <lane id=":34_0_2" index="2" disallow="bus rail_fast" speed="36.11" length="3.05" width="3.02" shape="10.69,70.56 9.35,67.82"/>
        <lane id=":34_0_3" index="3" disallow="bus rail_fast" speed="36.11" length="3.05" width="2.96" shape="13.42,69.24 12.07,66.50"/>
        <lane id=":34_0_4" index="4" disallow="rail_fast" speed="36.11" length="3.05" width="3.03" shape="16.13,67.92 14.78,65.19"/>
    </edge>
    <edge id=":35_0" function="internal">
        <lane id=":35_0_0" index="0" disallow="rail_fast" speed="21.96" length="7.43" width="2.94" shape="-3.99,54.54 -4.24,54.04 -4.48,53.59 -4.70,53.20 -4.91,52.84 -5.11,52.52 -5.30,52.23 -5.50,51.97 -5.69,51.73 -5.89,51.50 -6.09,51.28 -6.30,51.06 -6.53,50.84 -6.77,50.62 -7.04,50.38 -7.32,50.12 -7.64,49.85 -7.98,49.54 -8.35,49.20 -8.76,48.81"/>
        <lane id=":35_0_1" index="1" disallow="rail_fast" speed="36.11" length="7.43" width="2.94" shape="-3.99,54.54 -7.29,47.98"/>
        <lane id=":35_0_2" index="2" disallow="rail_fast" speed="36.11" length="7.43" width="3.05" shape="-1.32,53.19 -4.65,46.48"/>
        <lane id=":35_0_3" index="3" disallow="rail_fast" speed="36.11" length="7.43" width="3.03" shape="1.41,51.81 -1.99,44.97"/>
        <lane id=":35_0_4" index="4" disallow="rail_fast" speed="36.11" length="7.43" width="3.05" shape="4.14,50.44 0.67,43.47"/>
        <lane id=":35_0_5" index="5" disallow="rail_fast" speed="36.11" length="7.43" width="3.12" shape="6.89,49.05 3.90,42.99"/>
    </edge>
    <edge id=":36_0" function="internal">
        <lane id=":36_0_0" index="0" disallow="rail_fast" speed="15.71" length="3.50" width="3.22" shape="-9.15,48.45 -9.35,48.27 -9.54,48.11 -9.72,47.97 -9.89,47.84 -10.05,47.74 -10.20,47.64 -10.35,47.55 -10.48,47.47 -10.62,47.38 -10.74,47.30 -10.86,47.21 -10.98,47.11 -11.10,47.01 -11.22,46.88 -11.34,46.74 -11.46,46.58 -11.58,46.40 -11.70,46.19 -11.83,45.94"/>
        <lane id=":36_0_1" index="1" disallow="rail_fast" speed="36.11" length="3.50" width="2.87" shape="-7.48,47.60 -9.01,44.58"/>
        <lane id=":36_0_2" index="2" disallow="rail_fast" speed="36.11" length="3.50" width="3.00" shape="-4.79,46.21 -6.26,43.25"/>
        <lane id=":36_0_3" index="3" disallow="rail_fast" speed="36.11" length="3.50" width="3.02" shape="-2.07,44.81 -3.53,41.91"/>
        <lane id=":36_0_4" index="4" disallow="rail_fast" speed="36.11" length="3.50" width="3.02" shape="0.62,43.38 -0.81,40.53"/>
        <lane id=":36_0_5" index="5" disallow="rail_fast" speed="36.11" length="3.50" width="3.03" shape="3.81,42.81 1.98,39.11"/>
    </edge>
    <edge id=":37_0" function="internal">
        <lane id=":37_0_0" index="0" disallow="bus truck rail_fast" speed="36.11" length="4.73" width="3.84" shape="-21.38,26.98 -21.54,26.67 -21.68,26.38 -21.81,26.12 -21.92,25.89 -22.03,25.67 -22.12,25.47 -22.21,25.28 -22.30,25.11 -22.39,24.94 -22.48,24.77 -22.57,24.61 -22.67,24.44 -22.78,24.27 -22.91,24.09 -23.05,23.90 -23.20,23.69 -23.38,23.46 -23.57,23.21 -23.80,22.93"/>
    </edge>
    <edge id=":37_1" function="internal">
        <lane id=":37_1_0" index="0" disallow="rail_fast" speed="36.11" length="5.10" width="2.87" shape="-18.41,25.47 -20.71,20.88"/>
        <lane id=":37_1_1" index="1" disallow="rail_fast" speed="36.11" length="5.10" width="3.02" shape="-15.76,24.12 -18.06,19.56"/>
        <lane id=":37_1_2" index="2" disallow="rail_fast" speed="36.11" length="5.10" width="3.12" shape="-13.03,22.72 -15.28,18.19"/>
    </edge>
    <edge id=":37_4" function="internal">
        <lane id=":37_4_0" index="0" disallow="bus truck rail_fast" speed="36.11" length="5.03" width="2.93" shape="-10.29,21.32 -12.53,16.82"/>
    </edge>
    <edge id=":37_5" function="internal">
        <lane id=":37_5_0" index="0" disallow="bus truck rail_fast" speed="36.11" length="4.99" width="3.03" shape="-7.57,19.94 -9.80,15.47"/>
    </edge>
    <edge id=":38_0" function="internal">
        <lane id=":38_0_0" index="0" disallow="rail_fast" speed="36.11" length="3.02" width="3.06" shape="-25.30,11.64 -26.64,8.93"/>
        <lane id=":38_0_1" index="1" disallow="rail_fast" speed="36.11" length="3.02" width="2.99" shape="-22.58,10.30 -23.91,7.59"/>
        <lane id=":38_0_2" index="2" disallow="rail_fast" speed="36.11" length="3.02" width="3.06" shape="-19.82,8.95 -21.16,6.24"/>
    </edge>
    <edge id=":39_0" function="internal">
        <lane id=":39_0_0" index="0" disallow="rail_fast" speed="36.11" length="1.22" width="3.29" shape="-32.62,-3.12 -32.08,-2.03"/>
        <lane id=":39_0_1" index="1" disallow="rail_fast" speed="36.11" length="1.22" width="2.97" shape="-29.83,-4.56 -29.30,-3.46"/>
        <lane id=":39_0_2" index="2" disallow="rail_fast" speed="36.11" length="1.22" width="3.01" shape="-27.14,-5.94 -26.60,-4.85"/>
    </edge>
    <edge id=":5_0" function="internal">
        <lane id=":5_0_0" index="0" disallow="bus truck rail_fast" speed="8.72" length="16.70" width="3.23" shape="-44.95,3.36 -43.71,2.72 -42.55,2.09 -41.47,1.45 -40.48,0.82 -39.57,0.19 -38.74,-0.44 -38.00,-1.06 -37.34,-1.69 -36.75,-2.31 -36.26,-2.93 -35.84,-3.55 -35.51,-4.17 -35.25,-4.79 -35.08,-5.41 -35.00,-6.02 -34.99,-6.63 -35.07,-7.24 -35.23,-7.85 -35.47,-8.46"/>
    </edge>
    <edge id=":5_1" function="internal">
        <lane id=":5_1_0" index="0" disallow="rail_fast" speed="36.11" length="13.86" width="3.23" shape="-44.95,3.36 -32.65,-2.99"/>
        <lane id=":5_1_1" index="1" disallow="rail_fast" speed="36.11" length="13.86" width="3.03" shape="-43.56,6.16 -31.18,-0.13"/>
    </edge>
    <edge id=":5_3" function="internal">
        <lane id=":5_3_0" index="0" disallow="bus truck rail_fast" speed="36.11" length="1.56" width="2.92" shape="-42.21,8.89 -43.61,9.58"/>
    </edge>
    <edge id=":6_0" function="internal">
        <lane id=":6_0_0" index="0" disallow="bus truck rail_fast" speed="9.12" length="13.80" width="3.05" shape="-1.24,0.80 -1.60,1.23 -1.93,1.68 -2.20,2.17 -2.43,2.68 -2.62,3.22 -2.76,3.79 -2.85,4.38 -2.90,5.01 -2.90,5.66 -2.86,6.34 -2.77,7.05 -2.64,7.79 -2.46,8.56 -2.24,9.35 -1.97,10.18 -1.65,11.03 -1.29,11.91 -0.88,12.81 -0.43,13.75"/>
    </edge>
    <edge id=":6_1" function="internal">
        <lane id=":6_1_0" index="0" disallow="rail_fast" speed="36.11" length="13.06" width="3.05" shape="-6.07,2.02 -0.43,13.75"/>
        <lane id=":6_1_1" index="1" disallow="rail_fast" speed="36.11" length="13.06" width="2.91" shape="-8.89,3.38 -3.24,15.16"/>
        <lane id=":6_1_2" index="2" disallow="rail_fast" speed="36.11" length="13.06" width="2.89" shape="-11.62,4.69 -5.95,16.51"/>
    </edge>
    <edge id=":6_4" function="internal">
        <lane id=":6_4_0" index="0" disallow="bus truck rail_fast" speed="36.11" length="13.55" width="2.89" shape="-12.47,4.63 -5.95,16.51"/>
    </edge>
    <edge id=":7_0" function="internal">
        <lane id=":7_0_0" index="0" disallow="rail_fast" speed="36.11" length="0.24" width="3.05" shape="9.90,35.01 10.00,35.21"/>
        <lane id=":7_0_1" index="1" disallow="rail_fast" speed="36.11" length="0.24" width="2.91" shape="7.23,36.34 7.34,36.56"/>
        <lane id=":7_0_2" index="2" disallow="rail_fast" speed="36.11" length="0.24" width="2.89" shape="4.64,37.64 4.75,37.86"/>
    </edge>
    <edge id=":8_0" function="internal">
        <lane id=":8_0_0" index="0" disallow="rail_fast" speed="36.11" length="3.05" width="3.03" shape="13.12,41.29 14.50,44.02"/>
        <lane id=":8_0_1" index="1" disallow="rail_fast" speed="36.11" length="3.05" width="3.00" shape="10.40,42.65 11.76,45.38"/>
        <lane id=":8_0_2" index="2" disallow="rail_fast" speed="36.11" length="3.05" width="2.94" shape="7.76,43.97 9.10,46.70"/>
    </edge>
    <edge id=":9_0" function="internal">
        <lane id=":9_0_0" index="0" disallow="bus truck rail_fast" speed="10.11" length="13.46" width="3.16" shape="22.75,60.55 23.19,61.39 23.63,62.19 24.08,62.94 24.54,63.66 25.01,64.33 25.48,64.95 25.96,65.54 26.45,66.08 26.95,66.58 27.45,67.03 27.96,67.45 28.48,67.82 29.00,68.14 29.53,68.43 30.07,68.67 30.62,68.87 31.17,69.03 31.73,69.14 32.30,69.21"/>
    </edge>
    <edge id=":9_1" function="internal">
        <lane id=":9_1_0" index="0" disallow="rail_fast" speed="36.11" length="13.11" width="3.16" shape="22.75,60.55 28.55,72.31"/>
        <lane id=":9_1_1" index="1" disallow="bus rail_fast" speed="36.11" length="13.11" width="2.93" shape="19.97,61.90 25.79,73.65"/>
        <lane id=":9_1_2" index="2" disallow="rail_fast" speed="36.11" length="13.11" width="3.07" shape="17.22,63.24 23.05,74.98"/>
    </edge>

    <edge id="3426" from="34" to="35" priority="1" spreadType="center" length="21.90">
        <lane id="3426_0" index="0" disallow="rail_fast" speed="36.11" length="21.90" width="2.78" customShape="1" shape="4.01,70.41 -0.46,61.51 -3.99,54.54"/>
        <lane id="3426_1" index="1" disallow="rail_fast" speed="36.11" length="21.90" width="3.00" customShape="1" shape="6.62,69.14 2.19,60.26 -1.32,53.19"/>
        <lane id="3426_2" index="2" disallow="rail_fast" speed="36.11" length="21.90" width="3.02" customShape="1" shape="9.35,67.82 4.88,58.82 1.41,51.81"/>
        <lane id="3426_3" index="3" disallow="rail_fast" speed="36.11" length="21.90" width="2.96" customShape="1" shape="12.07,66.50 7.56,57.37 4.14,50.44"/>
        <lane id="3426_4" index="4" disallow="rail_fast" speed="36.11" length="21.90" width="3.03" customShape="1" shape="14.78,65.19 10.29,55.99 6.89,49.05"/>
    </edge>
    <edge id="3438" from="35" to="36" priority="1" spreadType="center" length="8.44">
        <lane id="3438_0" index="0" disallow="rail_fast" speed="36.11" length="8.44" width="2.94" customShape="1" shape="-8.76,48.81 -9.15,48.45"/>
        <lane id="3438_1" index="1" disallow="rail_fast" speed="36.11" length="8.44" width="2.94" customShape="1" shape="-7.29,47.98 -7.48,47.60"/>
        <lane id="3438_2" index="2" disallow="rail_fast" speed="36.11" length="8.44" width="3.05" customShape="1" shape="-4.65,46.48 -4.79,46.21"/>
        <lane id="3438_3" index="3" disallow="rail_fast" speed="36.11" length="8.44" width="3.03" customShape="1" shape="-1.99,44.97 -2.07,44.81"/>
        <lane id="3438_4" index="4" disallow="rail_fast" speed="36.11" length="8.44" width="3.05" customShape="1" shape="0.67,43.47 0.62,43.38"/>
        <lane id="3438_5" index="5" disallow="rail_fast" speed="36.11" length="8.44" width="3.12" customShape="1" shape="3.90,42.99 3.81,42.81"/>
    </edge>
    <edge id="3450" from="36" to="37" priority="1" spreadType="center" length="24.49">
        <lane id="3450_0" index="0" disallow="rail_fast" speed="36.11" length="24.49" width="3.22" customShape="1" shape="-11.83,45.94 -15.01,39.68 -18.80,31.99 -21.38,26.98"/>
        <lane id="3450_1" index="1" disallow="rail_fast" speed="36.11" length="24.49" width="2.87" customShape="1" shape="-9.01,44.58 -12.01,38.53 -15.84,30.58 -18.41,25.47"/>
        <lane id="3450_2" index="2" disallow="rail_fast" speed="36.11" length="24.49" width="3.00" customShape="1" shape="-6.26,43.25 -9.28,37.20 -13.13,29.25 -15.76,24.12"/>
        <lane id="3450_3" index="3" disallow="rail_fast" speed="36.11" length="24.49" width="3.02" customShape="1" shape="-3.53,41.91 -6.61,35.75 -10.50,27.80 -13.03,22.72"/>
        <lane id="3450_4" index="4" disallow="rail_fast" speed="36.11" length="24.49" width="3.02" customShape="1" shape="-0.81,40.53 -3.93,34.29 -7.81,26.34 -10.29,21.32"/>
        <lane id="3450_5" index="5" disallow="rail_fast" speed="36.11" length="24.49" width="3.03" customShape="1" shape="1.98,39.11 -1.23,32.79 -5.12,24.84 -7.57,19.94"/>
    </edge>
    <edge id="3456" from="6" to="7" priority="1" spreadType="center" length="24.71">
        <lane id="3456_0" index="0" disallow="rail_fast" speed="36.11" length="24.71" width="3.05" customShape="1" shape="-0.43,13.75 2.73,20.09 6.59,28.00 9.90,35.01"/>
        <lane id="3456_1" index="1" disallow="rail_fast" speed="36.11" length="24.71" width="2.91" customShape="1" shape="-3.24,15.16 0.17,21.85 3.85,29.42 7.23,36.34"/>
        <lane id="3456_2" index="2" disallow="rail_fast" speed="36.11" length="24.71" width="2.89" customShape="1" shape="-5.95,16.51 -2.46,23.41 1.33,31.12 4.64,37.64"/>
    </edge>
    <edge id="3462" from="7" to="8" priority="1" spreadType="center" length="8.47">
        <lane id="3462_0" index="0" disallow="rail_fast" speed="36.11" length="8.47" width="3.05" customShape="1" shape="10.00,35.21 13.12,41.29"/>
        <lane id="3462_1" index="1" disallow="rail_fast" speed="36.11" length="8.47" width="2.91" customShape="1" shape="7.34,36.56 10.40,42.65"/>
        <lane id="3462_2" index="2" disallow="rail_fast" speed="36.11" length="8.47" width="2.89" customShape="1" shape="4.75,37.86 7.76,43.97"/>
    </edge>
    <edge id="3468" from="8" to="9" priority="1" spreadType="center" length="22.24">
        <lane id="3468_0" index="0" disallow="rail_fast" speed="36.11" length="22.24" width="3.03" customShape="1" shape="14.50,44.02 18.43,51.97 22.75,60.55"/>
        <lane id="3468_1" index="1" disallow="rail_fast" speed="36.11" length="22.24" width="3.00" customShape="1" shape="11.76,45.38 15.75,53.38 19.97,61.90"/>
        <lane id="3468_2" index="2" disallow="rail_fast" speed="36.11" length="22.24" width="2.94" customShape="1" shape="9.10,46.70 13.06,54.76 17.22,63.24"/>
    </edge>
    <edge id="3498" from="1" to="2" priority="1" spreadType="center" length="9.59">
        <lane id="3498_0" index="0" disallow="rail_fast" speed="36.11" length="9.59" width="4.77" customShape="1" shape="53.76,74.39 44.57,74.69"/>
    </edge>
    <edge id="3500" from="25" to="26" priority="1" spreadType="center" length="9.59">
        <lane id="3500_0" index="0" disallow="rail_fast" speed="36.11" length="9.59" width="5.36" customShape="1" shape="45.40,69.60 53.55,69.33"/>
    </edge>
    <edge id="3509" from="4" to="5" priority="1" spreadType="center" length="15.63">
        <lane id="3509_0" index="0" disallow="rail_fast" speed="36.11" length="15.63" width="3.23" customShape="1" shape="-57.04,9.37 -52.64,7.19 -44.95,3.36"/>
        <lane id="3509_1" index="1" disallow="rail_fast" speed="36.11" length="15.63" width="3.02" customShape="1" shape="-55.65,12.17 -51.21,9.97 -43.56,6.16"/>
        <lane id="3509_2" index="2" disallow="rail_fast" speed="36.11" length="15.63" width="3.06" customShape="1" shape="-54.30,14.89 -49.80,12.66 -42.21,8.89"/>
    </edge>
    <edge id="3517" from="23" to="24" priority="1" spreadType="center" length="14.50">
        <lane id="3517_0" index="0" disallow="rail_fast" speed="36.11" length="14.50" width="5.13" acceleration="1" customShape="1" shape="-38.07,19.69 -45.40,23.22 -49.02,25.19"/>
        <lane id="3517_1" index="1" disallow="rail_fast" speed="36.11" length="14.50" width="3.11" customShape="1" shape="-39.86,15.38 -47.30,19.37 -50.99,21.58"/>
        <lane id="3517_2" index="2" disallow="rail_fast" speed="36.11" length="14.50" width="3.66" customShape="1" shape="-41.16,12.23 -48.82,16.34 -52.61,18.61"/>
    </edge>
    <edge id="3525" from="13" to="14" priority="1" spreadType="center" length="17.28">