<routes>
	<vehicle depart="0.1" departLane="0" departPos="10.986486584562472" departSpeed="5.5992" id="230" type="passenger">
		<route edges="3718 3500"/>
	</vehicle>
	<vehicle depart="0.1" departLane="0" departPos="15.152669035246458" departSpeed="9.6561" id="237" type="passenger">
		<route edges="3468 3713"/>
	</vehicle>
	<vehicle depart="0.1" departLane="0" departPos="4.897903048838035" departSpeed="10.9819" id="238" type="passenger">
		<route edges="3462 3468 3713"/>
	</vehicle>
	<vehicle depart="0.1" departLane="0" departPos="45.414887186227475" departSpeed="13.9903" id="276" type="passenger">
		<route edges="3542"/>
	</vehicle>
	<vehicle depart="0.1" departLane="1" departPos="11.813231403778605" departSpeed="10.7594" id="280" type="passenger">
		<route edges="3559 3568 3632 3652 3616 3602 3456 3462 3468 3713"/>
	</vehicle>
	<vehicle depart="0.1" departLane="5" departPos="23.298060207521157" departSpeed="0.0" id="283" type="passenger">
		<route edges="3450 3664 3525"/>
	</vehicle>
	<vehicle depart="0.1" departLane="0" departPos="0" departSpeed="13.6947" id="284" type="passenger">
		<route edges="3542"/>
	</vehicle>
	<vehicle depart="0.1" departLane="0" departPos="17.41506606477275" departSpeed="13.1186" id="289" type="passenger">
		<route edges="3600 3626 3542"/>
	</vehicle>
	<vehicle depart="0.1" departLane="4" departPos="24.064902461313075" departSpeed="0.0" id="292" type="passenger">
		<route edges="3450 3664 3525"/>
	</vehicle>
	<vehicle depart="0.1" departLane="4" departPos="16.994366897480557" departSpeed="0.0" id="296" type="passenger">
		<route edges="3450 3664 3525"/>
	</vehicle>
	<vehicle depart="0.1" departLane="0" departPos="13.702025957493015" departSpeed="10.5613" id="2106" type="passenger">
		<route edges="3456 3462 3468 3713"/>
	</vehicle>
	<vehicle depart="0.1" departLane="4" departPos="0" departSpeed="0.0" id="2120" type="passenger">
		<route edges="3450 3664 3525"/>
	</vehicle>
	<vehicle depart="0.1" departLane="5" departPos="15.514552130390586" departSpeed="0.027432" id="2122" type="passenger">
		<route edges="3450 3664 3525"/>
	</vehicle>
	<vehicle depart="0.1" departLane="1" departPos="25.1222824828668" departSpeed="13.2131" id="2125" type="passenger">
		<route edges="3713"/>
	</vehicle>
	<vehicle depart="0.1" departLane="0" departPos="13.590227654458182" departSpeed="11.9939" id="2126" type="passenger">
		<route edges="3610 3646 3626 3600 3626 3600 3542"/>
	</vehicle>
	<vehicle depart="0.1" departLane="1" departPos="17.062386620475984" departSpeed="10.6924" id="2130" type="passenger">
		<route edges="3450 3610 3646 3626 3600 3542"/>
	</vehicle>
	<vehicle depart="0.1" departLane="2" departPos="8.462964091320547" departSpeed="12.5059" id="2133" type="passenger">
		<route edges="3626 3542"/>
	</vehicle>
	<vehicle depart="0.1" departLane="2" departPos="10.548254949182319" departSpeed="13.4325" id="2134" type="passenger">
		<route edges="3646 3626 3542"/>
	</vehicle>
	<vehicle depart="0.1" departLane="4" departPos="0" departSpeed="2.4567" id="2136" type="passenger">
		<route edges="3450 3664 3525"/>
	</vehicle>
	<vehicle depart="0.1" departLane="1" departPos="27.25415857323693" departSpeed="15.0236" id="2138" type="passenger">
		<route edges="3542"/>
	</vehicle>
	<vehicle depart="0.1" departLane="3" departPos="8.966101662975296" departSpeed="9.4671" id="2143" type="passenger">
		<route edges="3559 3568 3632 3652 3616 3672 3616 3456 3462 3468 3713"/>
	</vehicle>
	<vehicle depart="0.1" departLane="1" departPos="0" departSpeed="15.5997" id="2144" type="passenger">
		<route edges="3542 3542"/>
	</vehicle>
	<vehicle depart="0.1" departLane="5" departPos="0" departSpeed="0.10363" id="2145" type="passenger">
		<route edges="3450 3664 3525"/>
	</vehicle>
	<vehicle depart="0.1" departLane="2" departPos="16.989485534092548" departSpeed="13.3868" id="2146" type="passenger">
		<route edges="3713"/>
	</vehicle>
	<vehicle depart="0.1" departLane="1" departPos="0" departSpeed="11.6982" id="2148" type="passenger">
		<route edges="3438 3450 3610 3646 3626 3600 3542"/>
	</vehicle>
	<vehicle depart="0.1" departLane="3" departPos="20.592629410713137" departSpeed="4.6482" id="2149" type="passenger">
		<route edges="3426 3438 3450 3664 3525"/>
	</vehicle>
	<vehicle depart="0.1" departLane="2" departPos="14.605894285342103" departSpeed="12.6553" id="2150" type="passenger">
		<route edges="3468 3713"/>
	</vehicle>
	<vehicle depart="0.1" departLane="4" departPos="0" departSpeed="0.36881" id="2152" type="passenger">
		<route edges="3705 3426 3438 3450 3664 3525"/>
	</vehicle>
	<vehicle depart="0.1" departLane="0" departPos="0" departSpeed="8.6502" id="2154" type="passenger">
		<route edges="3705 3426 3438 3450 3610 3646 3626 3542"/>
	</vehicle>
	<vehicle depart="0.1" departLane="0" departPos="0" departSpeed="9.3391" id="2156" type="passenger">
		<route edges="3555 3559 3568 3680 3680 3525"/>
	</vehicle>
	<vehicle depart="0.1" departLane="3" departPos="0" departSpeed="13.6672" id="2158" type="passenger">
		<route edges="3450 3610 3646 3626 3542"/>
	</vehicle>
	<vehicle depart="0.1" departLane="4" departPos="0" departSpeed="6.8854" id="2160" type="passenger">
		<route edges="3426 3438 3450 3664 3525"/>
	</vehicle>
	<vehicle depart="0.1" departLane="1" departPos="0" departSpeed="14.5694" id="2161" type="passenger">
		<route edges="3610 3646 3626 3542"/>
	</vehicle>
	<vehicle depart="0.1" departLane="1" departPos="0" departSpeed="0.012192" id="2162" type="passenger">
		<route edges="3620 3662 3640 3517"/>
	</vehicle>
	<vehicle depart="0.1" departLane="3" departPos="21.565309710552974" departSpeed="10.2961" id="2163" type="passenger">
		<route edges="3705 3426 3438 3450 3664 3525"/>
	</vehicle>
	<vehicle depart="0.1" departLane="0" departPos="0" departSpeed="12.1371" id="2166" type="passenger">
		<route edges="3652 3616 3456 3462 3468 3718 3500"/>
	</vehicle>
	<vehicle depart="0.1" departLane="1" departPos="0" departSpeed="15.6393" id="2168" type="passenger">
		<route edges="3456 3462 3468 3713"/>
	</vehicle>
	<vehicle depart="0.1" departLane="1" departPos="9.417008498212017" departSpeed="14.8255" id="2169" type="passenger">
		<route edges="3652 3616 3456 3462 3468 3468 3713"/>
	</vehicle>
	<vehicle depart="0.1" departLane="0" departPos="33.06899976710317" departSpeed="11.4971" id="2177" type="passenger">
		<route edges="3568 3680 3525"/>
	</vehicle>
</routes>
