<routes>
	<vehicle depart="0.1" departLane="0" departPos="41.47282178400391" departSpeed="2.1836908" id="363" type="bus">
		<route edges="77985 78084"/>
	</vehicle>
	<vehicle depart="0.1" departLane="0" departPos="29.14439924052118" departSpeed="9.617971" id="35" type="passenger">
		<route edges=":48_3 78083 77986"/>
	</vehicle>
	<vehicle depart="0.1" departLane="0" departPos="7.6892518203244276" departSpeed="0.37049105" id="319" type="passenger">
		<route edges=":46_5 77986"/>
	</vehicle>
	<vehicle depart="0.1" departLane="0" departPos="60.82048807119866" departSpeed="1.5056436" id="351" type="passenger">
		<route edges="77985 78080"/>
	</vehicle>
	<vehicle depart="0.1" departLane="0" departPos="51.605739589150055" departSpeed="1.7309778" id="356" type="passenger">
		<route edges="77985 78084"/>
	</vehicle>
	<vehicle depart="0.1" departLane="0" departPos="16.58879531366806" departSpeed="4.7727061" id="366" type="passenger">
		<route edges="77985 78084"/>
	</vehicle>
	<vehicle depart="0.1" departLane="0" departPos="22.31204267293552" departSpeed="0.022232722" id="30" type="truck">
		<route edges=":46_5 77986"/>
	</vehicle>
</routes>
