<routes>
	<vehicle depart="0.1" departLane="0" departPos="17.823119033414642" departSpeed="5.9402607" id="344" type="bus">
		<route edges="10368 10654"/>
	</vehicle>
	<vehicle depart="0.1" departLane="0" departPos="70.82767847874901" departSpeed="4.1040021" id="311" type="passenger">
		<route edges="10655 10658 10353"/>
	</vehicle>
	<vehicle depart="0.1" departLane="0" departPos="42.45495241740039" departSpeed="3.0810476" id="312" type="passenger">
		<route edges="10655 10658"/>
	</vehicle>
	<vehicle depart="0.1" departLane="0" departPos="30.135700496626754" departSpeed="0.92043552" id="320" type="passenger">
		<route edges="10655 10658"/>
	</vehicle>
	<vehicle depart="0.1" departLane="0" departPos="57.95671912063359" departSpeed="2.0173367" id="321" type="passenger">
		<route edges="10655 10658"/>
	</vehicle>
	<vehicle depart="0.1" departLane="0" departPos="30.878873484632194" departSpeed="1.7544922" id="338" type="passenger">
		<route edges=":96_4 10367 10708"/>
	</vehicle>
	<vehicle depart="0.1" departLane="0" departPos="34.366701603182904" departSpeed="0.0" id="348" type="passenger">
		<route edges="10368 10654"/>
	</vehicle>
</routes>
