<routes>
	<vehicle depart="0.1" departLane="0" departPos="11.712788094055574" departSpeed="0.17463566" id="34" type="passenger">
		<route edges=":21_2 44590"/>
	</vehicle>
	<vehicle depart="0.1" departLane="0" departPos="13.188553282475697" departSpeed="0.0" id="37" type="passenger">
		<route edges="44593 44384"/>
	</vehicle>
	<vehicle depart="0.1" departLane="0" departPos="66.74134093585437" departSpeed="0.23859611" id="38" type="passenger">
		<route edges="44383 44590"/>
	</vehicle>
	<vehicle depart="0.1" departLane="0" departPos="52.65765521344136" departSpeed="0.32719431" id="39" type="passenger">
		<route edges="44383 44590"/>
	</vehicle>
	<vehicle depart="0.1" departLane="0" departPos="13.41361002573291" departSpeed="0.70847063" id="311" type="passenger">
		<route edges=":21_5 44380"/>
	</vehicle>
	<vehicle depart="0.1" departLane="0" departPos="20.690400825061136" departSpeed="0.0" id="313" type="passenger">
		<route edges="44593 44384"/>
	</vehicle>
	<vehicle depart="0.1" departLane="0" departPos="12.347835506503893" departSpeed="7.1803648" id="327" type="passenger">
		<route edges=":21_8 44594 44176"/>
	</vehicle>
	<vehicle depart="0.1" departLane="0" departPos="29.262311972150908" departSpeed="8.273121" id="329" type="passenger">
		<route edges="44381 44384"/>
	</vehicle>
	<vehicle depart="0.1" departLane="0" departPos="10.855102030621477" departSpeed="6.6921465" id="335" type="passenger">
		<route edges="44381 44590"/>
	</vehicle>
	<vehicle depart="0.1" departLane="0" departPos="27.234837724790882" departSpeed="10.918434" id="322" type="motorcycle">
		<route edges=":21_7 44384"/>
	</vehicle>
</routes>
