<!-- generated on Tue Feb  9 22:22:32 2021 by Eclipse SUMO netconvert Version 1.8.0
<configuration xmlns:xsi="http://www.w3.org/2001/XMLSchema-instance" xsi:noNamespaceSchemaLocation="http://sumo.dlr.de/xsd/netconvertConfiguration.xsd">

    <input>
        <node-files value="./converted_scenarios/scenario-factory/ITA_Siderno-3_4_I-1-1/ITA_Siderno-3_4_I-1-1.nod.xml"/>
        <edge-files value="./converted_scenarios/scenario-factory/ITA_Siderno-3_4_I-1-1/ITA_Siderno-3_4_I-1-1.edg.xml"/>
        <connection-files value="./converted_scenarios/scenario-factory/ITA_Siderno-3_4_I-1-1/ITA_Siderno-3_4_I-1-1.con.xml"/>
        <tllogic-files value="./converted_scenarios/scenario-factory/ITA_Siderno-3_4_I-1-1/ITA_Siderno-3_4_I-1-1.tll.xml"/>
        <type-files value="/home/zen/commonroad-interactive-benchmarks/install/commonroad-map-tool/crmapconverter/sumo_map/templates/DEU.typ.xml"/>
    </input>

    <output>
        <output-file value="./converted_scenarios/scenario-factory/ITA_Siderno-3_4_I-1-1/ITA_Siderno-3_4_I-1-1.net.xml"/>
    </output>

    <processing>
        <geometry.remove.keep-edges.explicit value="true"/>
        <geometry.avoid-overlap value="true"/>
        <offset.disable-normalization value="true"/>
    </processing>

    <junctions>
        <no-turnarounds value="true"/>
        <junctions.internal-link-detail value="20"/>
    </junctions>

    <report>
        <aggregate-warnings value="5"/>
    </report>

    <random_number>
        <seed value="1234"/>
    </random_number>

</configuration>
--><net xmlns:xsi="http://www.w3.org/2001/XMLSchema-instance" version="1.6" junctionCornerDetail="5" junctionLinkDetail="20" limitTurnSpeed="5.50" xsi:noNamespaceSchemaLocation="http://sumo.dlr.de/xsd/net_file.xsd">

    <location netOffset="0.00,0.00" convBoundary="237.91,1001.88,394.12,1157.56" origBoundary="237.91,1001.88,394.12,1157.56" projParameter="!"/>

    <type id="highway.bridleway" priority="1" speed="2.78" allow="pedestrian" oneway="1" width="2.00"/>
    <type id="highway.bus_guideway" priority="1" speed="27.78" allow="bus" oneway="1"/>
    <type id="highway.cycleway" priority="1" speed="8.33" allow="bicycle" oneway="0" width="1.00"/>
    <type id="highway.footway" priority="1" speed="2.78" allow="pedestrian" oneway="1" width="2.00"/>
    <type id="highway.ford" priority="1" speed="2.78" allow="army" oneway="0"/>
    <type id="highway.living_street" priority="2" speed="2.78" disallow="tram rail_urban rail rail_electric rail_fast ship" oneway="0"/>
    <type id="highway.motorway" priority="14" speed="39.44" allow="private emergency authority army vip passenger hov taxi bus coach delivery truck trailer motorcycle evehicle custom1 custom2" oneway="1"/>
    <type id="highway.motorway_link" priority="9" speed="22.22" allow="private emergency authority army vip passenger hov taxi bus coach delivery truck trailer motorcycle evehicle custom1 custom2" oneway="1"/>
    <type id="highway.path" priority="1" speed="2.78" allow="pedestrian bicycle" oneway="0" width="2.00"/>
    <type id="highway.pedestrian" priority="1" speed="2.78" allow="pedestrian" oneway="1" width="2.00"/>
    <type id="highway.primary" priority="12" speed="27.78" disallow="pedestrian tram rail_urban rail rail_electric rail_fast ship" oneway="0"/>
    <type id="highway.primary_link" priority="7" speed="22.22" disallow="pedestrian tram rail_urban rail rail_electric rail_fast ship" oneway="0"/>
    <type id="highway.raceway" priority="15" speed="83.33" allow="vip" oneway="0"/>
    <type id="highway.residential" priority="3" speed="13.89" disallow="pedestrian tram rail_urban rail rail_electric rail_fast ship" oneway="0"/>
    <type id="highway.secondary" priority="11" speed="27.78" disallow="pedestrian tram rail_urban rail rail_electric rail_fast ship" oneway="0"/>
    <type id="highway.secondary_link" priority="6" speed="22.22" disallow="pedestrian tram rail_urban rail rail_electric rail_fast ship" oneway="0"/>
    <type id="highway.service" priority="1" speed="5.56" allow="pedestrian delivery bicycle" oneway="0"/>
    <type id="highway.stairs" priority="1" speed="1.39" allow="pedestrian" oneway="1" width="2.00"/>
    <type id="highway.step" priority="1" speed="1.39" allow="pedestrian" oneway="1" width="2.00"/>
    <type id="highway.steps" priority="1" speed="1.39" allow="pedestrian" oneway="1" width="2.00"/>
    <type id="highway.tertiary" priority="10" speed="22.22" disallow="pedestrian tram rail_urban rail rail_electric rail_fast ship" oneway="0"/>
    <type id="highway.tertiary_link" priority="5" speed="22.22" disallow="pedestrian tram rail_urban rail rail_electric rail_fast ship" oneway="0"/>
    <type id="highway.track" priority="1" speed="5.56" allow="pedestrian motorcycle moped bicycle" oneway="0"/>
    <type id="highway.trunk" priority="13" speed="27.78" disallow="pedestrian bicycle tram rail_urban rail rail_electric rail_fast ship" oneway="0"/>
    <type id="highway.trunk_link" priority="8" speed="22.22" disallow="pedestrian bicycle tram rail_urban rail rail_electric rail_fast ship" oneway="0"/>
    <type id="highway.unclassified" priority="4" speed="13.89" disallow="pedestrian tram rail_urban rail rail_electric rail_fast ship" oneway="0"/>
    <type id="highway.unsurfaced" priority="1" speed="8.33" disallow="tram rail_urban rail rail_electric rail_fast ship" oneway="0"/>
    <type id="railway.highspeed" priority="21" speed="69.44" allow="rail_fast" oneway="1"/>
    <type id="railway.light_rail" priority="19" speed="27.78" allow="rail_urban" oneway="1"/>
    <type id="railway.preserved" priority="16" speed="27.78" allow="rail" oneway="1"/>
    <type id="railway.rail" priority="20" speed="44.44" allow="rail" oneway="1"/>
    <type id="railway.subway" priority="18" speed="27.78" allow="rail_urban" oneway="1"/>
    <type id="railway.tram" priority="17" speed="13.89" allow="tram" oneway="1"/>

    <edge id=":21_0" function="internal">
        <lane id=":21_0_0" index="0" disallow="pedestrian tram rail_urban rail rail_electric rail_fast ship" speed="11.17" length="28.47" width="3.50" shape="344.34,1068.57 341.93,1066.33 340.18,1065.01 338.31,1063.87 336.31,1062.98 335.26,1062.64 334.20,1062.39 333.11,1062.22 332.02,1062.15 330.93,1062.18 329.84,1062.31 328.76,1062.52 326.68,1063.20 324.71,1064.15 322.86,1065.32 321.12,1066.66 319.51,1068.12"/>
    </edge>
    <edge id=":21_1" function="internal">
        <lane id=":21_1_0" index="0" disallow="pedestrian tram rail_urban rail rail_electric rail_fast ship" speed="36.11" length="39.17" width="3.50" shape="344.34,1068.57 330.72,1054.48 317.12,1040.40"/>
    </edge>
    <edge id=":21_2" function="internal">
        <lane id=":21_2_0" index="0" disallow="pedestrian tram rail_urban rail rail_electric rail_fast ship" speed="12.39" length="34.70" width="3.50" shape="344.34,1068.57 341.80,1065.66 340.31,1063.57 339.03,1061.33 338.04,1058.97 337.38,1056.48 337.20,1055.21 337.12,1053.93 337.15,1052.64 337.28,1051.36 337.84,1048.86 338.75,1046.45 339.95,1044.18 341.38,1042.04 343.83,1039.07 344.72,1038.14"/>
    </edge>
    <edge id=":21_3" function="internal">
        <lane id=":21_3_0" index="0" disallow="pedestrian tram rail_urban rail rail_electric rail_fast ship" speed="11.40" length="29.21" width="3.50" shape="347.22,1040.59 346.46,1041.38 344.29,1044.00 343.08,1045.82 342.07,1047.73 341.31,1049.72 340.84,1051.81 340.74,1052.81 340.71,1053.85 340.78,1054.89 340.92,1055.89 341.46,1057.95 342.28,1059.92 343.36,1061.81 344.63,1063.59 346.85,1066.13"/>
    </edge>
    <edge id=":21_4" function="internal">
        <lane id=":21_4_0" index="0" disallow="pedestrian tram rail_urban rail rail_electric rail_fast ship" speed="36.11" length="39.06" width="3.50" shape="347.22,1040.59 335.64,1052.28 319.51,1068.12"/>
    </edge>
    <edge id=":21_5" function="internal">
        <lane id=":21_5_0" index="0" disallow="pedestrian tram rail_urban rail rail_electric rail_fast ship" speed="12.13" length="34.66" width="3.50" shape="347.22,1040.59 344.38,1043.20 342.27,1044.78 339.98,1046.13 337.54,1047.19 336.21,1047.61 334.86,1047.90 333.49,1048.07 332.11,1048.12 330.72,1048.05 329.35,1047.85 328.02,1047.53 326.69,1047.10 324.27,1046.01 322.01,1044.62 319.92,1043.02 317.12,1040.40"/>
    </edge>
    <edge id=":21_6" function="internal">
        <lane id=":21_6_0" index="0" disallow="pedestrian tram rail_urban rail rail_electric rail_fast ship" speed="11.12" length="28.98" width="3.50" shape="319.63,1037.97 322.06,1040.25 323.83,1041.60 325.74,1042.77 327.77,1043.68 328.83,1044.03 329.91,1044.29 331.02,1044.45 332.13,1044.51 333.24,1044.47 334.35,1044.33 335.44,1044.09 336.51,1043.77 338.55,1042.88 340.47,1041.74 342.26,1040.41 344.72,1038.14"/>
    </edge>
    <edge id=":21_7" function="internal">
        <lane id=":21_7_0" index="0" disallow="pedestrian tram rail_urban rail rail_electric rail_fast ship" speed="36.11" length="39.17" width="3.50" shape="319.63,1037.97 333.23,1052.04 346.85,1066.13"/>
    </edge>
    <edge id=":21_8" function="internal">
        <lane id=":21_8_0" index="0" disallow="pedestrian tram rail_urban rail rail_electric rail_fast ship" speed="12.24" length="34.47" width="3.50" shape="319.63,1037.97 321.34,1039.86 322.93,1041.90 324.34,1044.10 325.53,1046.47 326.40,1048.98 326.71,1050.34 326.90,1051.69 326.98,1053.06 326.93,1054.44 326.76,1055.80 326.48,1057.14 326.09,1058.44 325.60,1059.73 324.40,1062.08 322.93,1064.27 321.28,1066.28 319.51,1068.12"/>
    </edge>
    <edge id=":21_9" function="internal">
        <lane id=":21_9_0" index="0" disallow="pedestrian tram rail_urban rail rail_electric rail_fast ship" speed="11.24" length="28.89" width="3.50" shape="317.08,1065.60 318.61,1064.01 320.02,1062.29 321.26,1060.44 322.27,1058.46 322.66,1057.42 322.98,1056.35 323.21,1055.26 323.34,1054.16 323.38,1053.04 323.31,1051.93 323.15,1050.83 322.91,1049.75 322.17,1047.65 321.17,1045.66 319.96,1043.79 318.59,1042.04 317.12,1040.40"/>
    </edge>
    <edge id=":21_10" function="internal">
        <lane id=":21_10_0" index="0" disallow="pedestrian tram rail_urban rail rail_electric rail_fast ship" speed="36.11" length="38.96" width="3.50" shape="317.08,1065.60 333.17,1049.80 344.72,1038.14"/>
    </edge>
    <edge id=":21_11" function="internal">
        <lane id=":21_11_0" index="0" disallow="pedestrian tram rail_urban rail rail_electric rail_fast ship" speed="12.17" length="34.04" width="3.50" shape="317.08,1065.60 318.95,1063.92 320.97,1062.35 323.16,1060.97 325.53,1059.83 328.03,1059.01 329.38,1058.74 330.73,1058.59 332.08,1058.55 333.44,1058.64 334.78,1058.84 336.09,1059.15 337.39,1059.57 339.77,1060.64 342.00,1061.99 344.07,1063.55 346.85,1066.13"/>
    </edge>
    <edge id=":22_0" function="internal">
        <lane id=":22_0_0" index="0" disallow="pedestrian tram rail_urban rail rail_electric rail_fast ship" speed="36.11" length="10.01" width="3.50" shape="293.68,1097.56 290.33,1094.04 286.78,1090.31"/>
    </edge>
    <edge id=":22_1" function="internal">
        <lane id=":22_1_0" index="0" disallow="pedestrian tram rail_urban rail rail_electric rail_fast ship" speed="8.79" length="17.23" width="3.50" shape="295.98,1095.35 295.93,1095.15 295.73,1092.81 295.84,1091.05 296.34,1088.76 297.20,1086.58 298.35,1084.53 300.11,1082.18 302.12,1080.04"/>
    </edge>
    <edge id=":22_2" function="internal">
        <lane id=":22_2_0" index="0" disallow="pedestrian tram rail_urban rail rail_electric rail_fast ship" speed="8.75" length="17.20" width="3.50" shape="304.55,1082.56 302.37,1084.47 299.99,1086.14 297.93,1087.22 295.74,1088.01 293.46,1088.44 291.72,1088.51 289.41,1088.24 289.07,1088.14"/>
    </edge>

    <edge id="44174" from="6" to="22" priority="3" type="highway.residential" spreadType="center" length="83.31">
        <lane id="44174_0" index="0" disallow="pedestrian tram rail_urban rail rail_electric rail_fast ship" speed="36.11" length="83.31" width="3.50" customShape="1" shape="351.48,1157.56 328.58,1133.97 293.64,1097.60"/>
    </edge>
    <edge id="44176" from="22" to="5" priority="3" type="highway.residential" spreadType="center" length="71.07">
        <lane id="44176_0" index="0" disallow="pedestrian tram rail_urban rail rail_electric rail_fast ship" speed="36.11" length="71.07" width="3.50" customShape="1" shape="286.74,1090.34 257.86,1059.79 237.91,1038.70"/>
    </edge>
    <edge id="44380" from="21" to="16" priority="3" type="highway.residential" spreadType="center" length="50.05" shape="330.83,1054.44 282.45,1004.30">
        <lane id="44380_0" index="0" disallow="pedestrian tram rail_urban rail rail_electric rail_fast ship" speed="36.11" length="50.05" width="3.50" customShape="1" shape="317.12,1040.40 299.78,1022.35 282.45,1004.30"/>
    </edge>
    <edge id="44381" from="19" to="21" priority="3" type="highway.residential" spreadType="center" length="50.05" shape="284.97,1001.88 333.34,1052.01">
        <lane id="44381_0" index="0" disallow="pedestrian tram rail_urban rail rail_electric rail_fast ship" speed="36.11" length="50.05" width="3.50" customShape="1" shape="284.97,1001.88 302.30,1019.92 319.64,1037.98"/>
    </edge>
    <edge id="44383" from="18" to="21" priority="3" type="highway.residential" spreadType="center" length="67.86" shape="391.61,1117.24 330.77,1054.38">
        <lane id="44383_0" index="0" disallow="pedestrian tram rail_urban rail rail_electric rail_fast ship" speed="36.11" length="67.86" width="3.50" customShape="1" shape="391.61,1117.24 367.97,1092.90 344.33,1068.56"/>
    </edge>
    <edge id="44384" from="21" to="13" priority="3" type="highway.residential" spreadType="center" length="67.85" shape="333.29,1051.95 394.12,1114.80">
        <lane id="44384_0" index="0" disallow="pedestrian tram rail_urban rail rail_electric rail_fast ship" speed="36.11" length="67.85" width="3.50" customShape="1" shape="346.85,1066.13 370.48,1090.47 394.12,1114.80"/>
    </edge>
    <edge id="44590" from="21" to="17" priority="3" type="highway.residential" spreadType="center" length="41.23" shape="330.78,1052.00 373.55,1008.66">
        <lane id="44590_0" index="0" disallow="pedestrian tram rail_urban rail rail_electric rail_fast ship" speed="36.11" length="41.23" width="3.50" customShape="1" shape="344.72,1038.14 359.14,1023.40 373.55,1008.66"/>
    </edge>
    <edge id="44591" from="20" to="21" priority="3" type="highway.residential" spreadType="center" length="41.26" shape="376.06,1011.10 333.26,1054.46">
        <lane id="44591_0" index="0" disallow="pedestrian tram rail_urban rail rail_electric rail_fast ship" speed="36.11" length="41.26" width="3.50" customShape="1" shape="376.06,1011.10 361.64,1025.85 347.21,1040.60"/>
    </edge>
    <edge id="44593" from="22" to="21" priority="3" type="highway.residential" spreadType="center" length="20.79" shape="295.56,1086.46 330.83,1051.94">
        <lane id="44593_0" index="0" disallow="pedestrian tram rail_urban rail rail_electric rail_fast ship" speed="36.11" length="20.79" width="3.50" customShape="1" shape="302.12,1080.04 309.59,1072.83 317.08,1065.60"/>
    </edge>
    <edge id="44594" from="21" to="22" priority="3" type="highway.residential" spreadType="center" length="20.79" shape="333.28,1054.44 298.01,1088.96">
        <lane id="44594_0" index="0" disallow="pedestrian tram rail_urban rail rail_electric rail_fast ship" speed="36.11" length="20.79" width="3.50" customShape="1" shape="319.51,1068.12 312.02,1075.34 304.55,1082.56"/>
    </edge>

    <junction id="13" type="dead_end" x="394.12" y="1114.80" incLanes="44384_0" intLanes="" shape="395.37,1113.59 392.86,1116.02" rightOfWay="edgePriority"/>
    <junction id="16" type="dead_end" x="282.45" y="1004.30" incLanes="44380_0" intLanes="" shape="281.18,1005.51 283.71,1003.09" rightOfWay="edgePriority"/>
    <junction id="17" type="dead_end" x="373.55" y="1008.66" incLanes="44590_0" intLanes="" shape="372.30,1007.44 374.80,1009.88" rightOfWay="edgePriority"/>
    <junction id="18" type="dead_end" x="391.61" y="1117.24" incLanes="" intLanes="" shape="392.86,1116.03 390.35,1118.46" rightOfWay="edgePriority"/>
    <junction id="19" type="dead_end" x="284.97" y="1001.88" incLanes="" intLanes="" shape="283.71,1003.09 286.24,1000.67" rightOfWay="edgePriority"/>
    <junction id="20" type="dead_end" x="376.06" y="1011.10" incLanes="" intLanes="" shape="374.81,1009.88 377.31,1012.33" rightOfWay="edgePriority"/>
    <junction id="21" type="priority" x="332.06" y="1053.19" incLanes="44383_0 44591_0 44381_0 44593_0" intLanes=":21_0_0 :21_1_0 :21_2_0 :21_3_0 :21_4_0 :21_5_0 :21_6_0 :21_7_0 :21_8_0 :21_9_0 :21_10_0 :21_11_0" shape="343.08,1069.78 348.10,1064.91 345.04,1061.10 343.22,1057.28 342.66,1053.44 343.34,1049.58 345.28,1045.70 348.47,1041.81 343.47,1036.92 339.70,1040.13 335.93,1042.04 332.17,1042.66 328.41,1041.99 324.65,1040.03 320.90,1036.77 315.85,1041.62 319.00,1045.52 320.89,1049.38 321.52,1053.20 320.90,1056.96 319.01,1060.67 315.87,1064.34 320.73,1069.37 324.50,1066.35 328.25,1064.56 331.98,1064.01 335.70,1064.70 339.40,1066.62">
        <request index="0" response="000000000000" foes="000100010000" cont="0"/>
        <request index="1" response="000000000000" foes="111100110000" cont="0"/>
        <request index="2" response="000011000000" foes="110011110000" cont="0"/>
        <request index="3" response="000010000000" foes="100010000000" cont="0"/>
        <request index="4" response="000110000111" foes="100110000111" cont="0"/>
        <request index="5" response="011110000110" foes="011110000110" cont="0"/>
        <request index="6" response="000000000000" foes="010000000100" cont="0"/>
        <request index="7" response="000000000000" foes="110000111100" cont="0"/>
        <request index="8" response="000000000011" foes="110000110011" cont="0"/>
        <request index="9" response="000000000010" foes="000000100010" cont="0"/>
        <request index="10" response="000111000110" foes="000111100110" cont="0"/>
        <request index="11" response="000110011110" foes="000110011110" cont="0"/>
    </junction>
    <junction id="22" type="priority" x="296.83" y="1087.67" incLanes="44174_0 44594_0" intLanes=":22_0_0 :22_1_0 :22_2_0" shape="292.37,1098.81 294.90,1096.39 295.64,1094.51 297.09,1092.70 299.27,1090.32 302.16,1087.36 305.77,1083.82 300.90,1078.78 297.25,1082.25 294.20,1085.02 291.75,1087.09 289.91,1088.47 288.66,1089.15 288.02,1089.14 285.47,1091.54">
        <request index="0" response="000" foes="100" cont="0"/>
        <request index="1" response="000" foes="100" cont="0"/>
        <request index="2" response="011" foes="011" cont="0"/>
    </junction>
    <junction id="5" type="dead_end" x="237.91" y="1038.70" incLanes="44176_0" intLanes="" shape="236.64,1039.91 239.18,1037.50" rightOfWay="edgePriority"/>
    <junction id="6" type="dead_end" x="351.48" y="1157.56" incLanes="" intLanes="" shape="352.73,1156.34 350.22,1158.78" rightOfWay="edgePriority"/>

    <connection from="44174" to="44176" fromLane="0" toLane="0" contPos="-4.00" shape="302.86,1107.20 290.33,1094.04 277.80,1080.88" via=":22_0_0" dir="s" state="M"/>
    <connection from="44174" to="44593" fromLane="0" toLane="0" contPos="-4.00" shape="302.86,1107.20 300.53,1104.55 298.82,1102.17 297.38,1099.61 296.50,1097.43 295.93,1095.15 295.73,1092.81 295.84,1091.05 296.34,1088.76 297.20,1086.58 298.35,1084.53 300.11,1082.18 302.12,1080.04" via=":22_1_0" dir="l" state="M"/>
    <connection from="44381" to="44590" fromLane="0" toLane="0" contPos="-4.00" shape="319.63,1037.97 322.06,1040.25 323.83,1041.60 325.74,1042.77 327.77,1043.68 328.83,1044.03 329.91,1044.29 331.02,1044.45 332.13,1044.51 333.24,1044.47 334.35,1044.33 335.44,1044.09 336.51,1043.77 338.55,1042.88 340.47,1041.74 342.26,1040.41 344.72,1038.14" via=":21_6_0" dir="r" state="M"/>
    <connection from="44381" to="44384" fromLane="0" toLane="0" contPos="-4.00" shape="319.63,1037.97 333.23,1052.04 346.85,1066.13" via=":21_7_0" dir="s" state="M"/>
    <connection from="44381" to="44594" fromLane="0" toLane="0" contPos="-4.00" shape="319.63,1037.97 321.34,1039.86 322.93,1041.90 324.34,1044.10 325.53,1046.47 326.40,1048.98 326.71,1050.34 326.90,1051.69 326.98,1053.06 326.93,1054.44 326.76,1055.80 326.48,1057.14 326.09,1058.44 325.60,1059.73 324.40,1062.08 322.93,1064.27 321.28,1066.28 319.51,1068.12" via=":21_8_0" dir="l" state="m"/>
    <connection from="44383" to="44594" fromLane="0" toLane="0" contPos="-4.00" shape="344.33,1068.56 341.93,1066.33 340.18,1065.01 338.31,1063.87 336.31,1062.98 335.26,1062.64 334.20,1062.39 333.11,1062.22 332.02,1062.15 330.93,1062.18 329.84,1062.31 328.76,1062.52 326.68,1063.20 324.71,1064.15 322.86,1065.32 321.12,1066.66 319.51,1068.12" via=":21_0_0" dir="r" state="M"/>
    <connection from="44383" to="44380" fromLane="0" toLane="0" contPos="-4.00" shape="344.33,1068.56 330.72,1054.48 317.12,1040.40" via=":21_1_0" dir="s" state="M"/>
    <connection from="44383" to="44590" fromLane="0" toLane="0" contPos="-4.00" shape="344.33,1068.56 341.80,1065.66 340.31,1063.57 339.03,1061.33 338.04,1058.97 337.38,1056.48 337.20,1055.21 337.12,1053.93 337.15,1052.64 337.28,1051.36 337.84,1048.86 338.75,1046.45 339.95,1044.18 341.38,1042.04 343.83,1039.07 344.72,1038.14" via=":21_2_0" dir="l" state="m"/>
    <connection from="44591" to="44384" fromLane="0" toLane="0" contPos="-4.00" shape="347.21,1040.60 346.46,1041.38 344.29,1044.00 343.08,1045.82 342.07,1047.73 341.31,1049.72 340.84,1051.81 340.74,1052.81 340.71,1053.85 340.78,1054.89 340.92,1055.89 341.46,1057.95 342.28,1059.92 343.36,1061.81 344.63,1063.59 346.85,1066.13" via=":21_3_0" dir="r" state="m"/>
    <connection from="44591" to="44594" fromLane="0" toLane="0" contPos="-4.00" shape="347.21,1040.60 335.64,1052.28 319.51,1068.12" via=":21_4_0" dir="s" state="m"/>
    <connection from="44591" to="44380" fromLane="0" toLane="0" contPos="-4.00" shape="347.21,1040.60 344.38,1043.20 342.27,1044.78 339.98,1046.13 337.54,1047.19 336.21,1047.61 334.86,1047.90 333.49,1048.07 332.11,1048.12 330.72,1048.05 329.35,1047.85 328.02,1047.53 326.69,1047.10 324.27,1046.01 322.01,1044.62 319.92,1043.02 317.12,1040.40" via=":21_5_0" dir="l" state="m"/>
    <connection from="44593" to="44380" fromLane="0" toLane="0" contPos="-4.00" shape="317.08,1065.60 318.61,1064.01 320.02,1062.29 321.26,1060.44 322.27,1058.46 322.66,1057.42 322.98,1056.35 323.21,1055.26 323.34,1054.16 323.38,1053.04 323.31,1051.93 323.15,1050.83 322.91,1049.75 322.17,1047.65 321.17,1045.66 319.96,1043.79 318.59,1042.04 317.12,1040.40" via=":21_9_0" dir="r" state="m"/>
    <connection from="44593" to="44590" fromLane="0" toLane="0" contPos="-4.00" shape="317.08,1065.60 333.17,1049.80 344.72,1038.14" via=":21_10_0" dir="s" state="m"/>
    <connection from="44593" to="44384" fromLane="0" toLane="0" contPos="-4.00" shape="317.08,1065.60 318.95,1063.92 320.97,1062.35 323.16,1060.97 325.53,1059.83 328.03,1059.01 329.38,1058.74 330.73,1058.59 332.08,1058.55 333.44,1058.64 334.78,1058.84 336.09,1059.15 337.39,1059.57 339.77,1060.64 342.00,1061.99 344.07,1063.55 346.85,1066.13" via=":21_11_0" dir="l" state="m"/>
    <connection from="44594" to="44176" fromLane="0" toLane="0" contPos="-4.00" shape="304.55,1082.56 302.37,1084.47 299.99,1086.14 297.93,1087.22 295.74,1088.01 293.46,1088.44 291.72,1088.51 289.41,1088.24 287.18,1087.60 285.06,1086.64 282.59,1085.11 280.31,1083.31 277.80,1080.88" via=":22_2_0" dir="l" state="m"/>

    <connection from=":21_0" to="44594" fromLane="0" toLane="0" dir="r" state="M"/>
    <connection from=":21_1" to="44380" fromLane="0" toLane="0" dir="s" state="M"/>
    <connection from=":21_2" to="44590" fromLane="0" toLane="0" dir="l" state="M"/>
    <connection from=":21_3" to="44384" fromLane="0" toLane="0" dir="r" state="M"/>
    <connection from=":21_4" to="44594" fromLane="0" toLane="0" dir="s" state="M"/>
    <connection from=":21_5" to="44380" fromLane="0" toLane="0" dir="l" state="M"/>
    <connection from=":21_6" to="44590" fromLane="0" toLane="0" dir="r" state="M"/>
    <connection from=":21_7" to="44384" fromLane="0" toLane="0" dir="s" state="M"/>
    <connection from=":21_8" to="44594" fromLane="0" toLane="0" dir="l" state="M"/>
    <connection from=":21_9" to="44380" fromLane="0" toLane="0" dir="r" state="M"/>
    <connection from=":21_10" to="44590" fromLane="0" toLane="0" dir="s" state="M"/>
    <connection from=":21_11" to="44384" fromLane="0" toLane="0" dir="l" state="M"/>
    <connection from=":22_0" to="44176" fromLane="0" toLane="0" dir="s" state="M"/>
    <connection from=":22_1" to="44593" fromLane="0" toLane="0" dir="l" state="M"/>
    <connection from=":22_2" to="44176" fromLane="0" toLane="0" dir="l" state="M"/>

</net>