<!-- generated on Wed Feb 10 12:26:49 2021 by Eclipse SUMO netconvert Version 1.8.0
<configuration xmlns:xsi="http://www.w3.org/2001/XMLSchema-instance" xsi:noNamespaceSchemaLocation="http://sumo.dlr.de/xsd/netconvertConfiguration.xsd">

    <input>
        <node-files value="./converted_scenarios/SUMO/DEU_Flensburg-8_1_I-1-1/DEU_Flensburg-8_1_I-1-1.nod.xml"/>
        <edge-files value="./converted_scenarios/SUMO/DEU_Flensburg-8_1_I-1-1/DEU_Flensburg-8_1_I-1-1.edg.xml"/>
        <connection-files value="./converted_scenarios/SUMO/DEU_Flensburg-8_1_I-1-1/DEU_Flensburg-8_1_I-1-1.con.xml"/>
        <tllogic-files value="./converted_scenarios/SUMO/DEU_Flensburg-8_1_I-1-1/DEU_Flensburg-8_1_I-1-1.tll.xml"/>
        <type-files value="/home/zen/commonroad-interactive-benchmarks/install/commonroad-map-tool/crmapconverter/sumo_map/templates/DEU.typ.xml"/>
    </input>

    <output>
        <output-file value="./converted_scenarios/SUMO/DEU_Flensburg-8_1_I-1-1/DEU_Flensburg-8_1_I-1-1.net.xml"/>
    </output>

    <processing>
        <geometry.remove.keep-edges.explicit value="true"/>
        <geometry.avoid-overlap value="true"/>
        <offset.disable-normalization value="true"/>
    </processing>

    <junctions>
        <no-turnarounds value="true"/>
        <junctions.internal-link-detail value="20"/>
    </junctions>

    <report>
        <aggregate-warnings value="5"/>
    </report>

    <random_number>
        <seed value="1234"/>
    </random_number>

</configuration>
--><net xmlns:xsi="http://www.w3.org/2001/XMLSchema-instance" version="1.6" junctionCornerDetail="5" junctionLinkDetail="20" limitTurnSpeed="5.50" xsi:noNamespaceSchemaLocation="http://sumo.dlr.de/xsd/net_file.xsd">

    <location netOffset="0.00,0.00" convBoundary="38.54,-709.17,130.70,-528.52" origBoundary="36.91,-709.17,130.70,-527.00" projParameter="!"/>

    <type id="highway.bridleway" priority="1" speed="2.78" allow="pedestrian" oneway="1" width="2.00"/>
    <type id="highway.bus_guideway" priority="1" speed="27.78" allow="bus" oneway="1"/>
    <type id="highway.cycleway" priority="1" speed="8.33" allow="bicycle" oneway="0" width="1.00"/>
    <type id="highway.footway" priority="1" speed="2.78" allow="pedestrian" oneway="1" width="2.00"/>
    <type id="highway.ford" priority="1" speed="2.78" allow="army" oneway="0"/>
    <type id="highway.living_street" priority="2" speed="2.78" disallow="tram rail_urban rail rail_electric rail_fast ship" oneway="0"/>
    <type id="highway.motorway" priority="14" speed="39.44" allow="private emergency authority army vip passenger hov taxi bus coach delivery truck trailer motorcycle evehicle custom1 custom2" oneway="1"/>
    <type id="highway.motorway_link" priority="9" speed="22.22" allow="private emergency authority army vip passenger hov taxi bus coach delivery truck trailer motorcycle evehicle custom1 custom2" oneway="1"/>
    <type id="highway.path" priority="1" speed="2.78" allow="pedestrian bicycle" oneway="0" width="2.00"/>
    <type id="highway.pedestrian" priority="1" speed="2.78" allow="pedestrian" oneway="1" width="2.00"/>
    <type id="highway.primary" priority="12" speed="27.78" disallow="pedestrian tram rail_urban rail rail_electric rail_fast ship" oneway="0"/>
    <type id="highway.primary_link" priority="7" speed="22.22" disallow="pedestrian tram rail_urban rail rail_electric rail_fast ship" oneway="0"/>
    <type id="highway.raceway" priority="15" speed="83.33" allow="vip" oneway="0"/>
    <type id="highway.residential" priority="3" speed="13.89" disallow="pedestrian tram rail_urban rail rail_electric rail_fast ship" oneway="0"/>
    <type id="highway.secondary" priority="11" speed="27.78" disallow="pedestrian tram rail_urban rail rail_electric rail_fast ship" oneway="0"/>
    <type id="highway.secondary_link" priority="6" speed="22.22" disallow="pedestrian tram rail_urban rail rail_electric rail_fast ship" oneway="0"/>
    <type id="highway.service" priority="1" speed="5.56" allow="pedestrian delivery bicycle" oneway="0"/>
    <type id="highway.stairs" priority="1" speed="1.39" allow="pedestrian" oneway="1" width="2.00"/>
    <type id="highway.step" priority="1" speed="1.39" allow="pedestrian" oneway="1" width="2.00"/>
    <type id="highway.steps" priority="1" speed="1.39" allow="pedestrian" oneway="1" width="2.00"/>
    <type id="highway.tertiary" priority="10" speed="22.22" disallow="pedestrian tram rail_urban rail rail_electric rail_fast ship" oneway="0"/>
    <type id="highway.tertiary_link" priority="5" speed="22.22" disallow="pedestrian tram rail_urban rail rail_electric rail_fast ship" oneway="0"/>
    <type id="highway.track" priority="1" speed="5.56" allow="pedestrian motorcycle moped bicycle" oneway="0"/>
    <type id="highway.trunk" priority="13" speed="27.78" disallow="pedestrian bicycle tram rail_urban rail rail_electric rail_fast ship" oneway="0"/>
    <type id="highway.trunk_link" priority="8" speed="22.22" disallow="pedestrian bicycle tram rail_urban rail rail_electric rail_fast ship" oneway="0"/>
    <type id="highway.unclassified" priority="4" speed="13.89" disallow="pedestrian tram rail_urban rail rail_electric rail_fast ship" oneway="0"/>
    <type id="highway.unsurfaced" priority="1" speed="8.33" disallow="tram rail_urban rail rail_electric rail_fast ship" oneway="0"/>
    <type id="railway.highspeed" priority="21" speed="69.44" allow="rail_fast" oneway="1"/>
    <type id="railway.light_rail" priority="19" speed="27.78" allow="rail_urban" oneway="1"/>
    <type id="railway.preserved" priority="16" speed="27.78" allow="rail" oneway="1"/>
    <type id="railway.rail" priority="20" speed="44.44" allow="rail" oneway="1"/>
    <type id="railway.subway" priority="18" speed="27.78" allow="rail_urban" oneway="1"/>
    <type id="railway.tram" priority="17" speed="13.89" allow="tram" oneway="1"/>

    <edge id=":20_0" function="internal">
        <lane id=":20_0_0" index="0" disallow="pedestrian tram rail_urban rail rail_electric rail_fast ship" speed="10.52" length="14.54" width="3.50" shape="86.34,-557.34 89.70,-560.89 90.69,-562.25 91.37,-563.80 91.65,-565.46 91.56,-567.14 91.17,-568.78 90.74,-569.93"/>
    </edge>
    <edge id=":20_1" function="internal">
        <lane id=":20_1_0" index="0" disallow="pedestrian tram rail_urban rail rail_electric rail_fast ship" speed="7.21" length="6.99" width="3.49" shape="86.34,-557.34 86.62,-557.72 86.90,-558.09 87.19,-558.43 87.48,-558.75 87.77,-559.05 88.06,-559.32 88.35,-559.57 88.65,-559.80 88.95,-560.00 89.24,-560.18 89.55,-560.34 89.85,-560.47 90.16,-560.58 90.46,-560.67 90.77,-560.74 91.08,-560.78 91.40,-560.80 91.71,-560.80 92.03,-560.77"/>
    </edge>
    <edge id=":20_2" function="internal">
        <lane id=":20_2_0" index="0" disallow="pedestrian tram rail_urban rail rail_electric rail_fast ship" speed="6.82" length="11.21" width="3.49" shape="86.34,-557.34 86.71,-557.82 87.09,-558.25 87.49,-558.62 87.90,-558.92 88.33,-559.17 88.77,-559.36 89.22,-559.49 89.69,-559.56 90.17,-559.56 90.67,-559.51 91.18,-559.40 91.70,-559.23 92.24,-559.00 92.79,-558.70 93.35,-558.35 93.93,-557.94 94.52,-557.47 95.13,-556.94 95.75,-556.35"/>
    </edge>
    <edge id=":20_3" function="internal">
        <lane id=":20_3_0" index="0" disallow="pedestrian tram rail_urban rail rail_electric rail_fast ship" speed="5.52" length="9.90" width="3.50" shape="96.68,-554.33 96.42,-554.70 95.49,-555.75 94.43,-556.65 93.24,-557.28 91.96,-557.51 88.97,-554.84"/>
    </edge>
    <edge id=":20_4" function="internal">
        <lane id=":20_4_0" index="0" disallow="pedestrian tram rail_urban rail rail_electric rail_fast ship" speed="36.11" length="16.58" width="3.50" shape="97.21,-554.66 94.79,-560.47 90.74,-569.93"/>
        <lane id=":20_4_1" index="1" disallow="pedestrian tram rail_urban rail rail_electric rail_fast ship" speed="36.11" length="16.06" width="3.50" shape="100.22,-556.52 97.98,-561.91 93.95,-571.31"/>
    </edge>
    <edge id=":20_6" function="internal">
        <lane id=":20_6_0" index="0" disallow="pedestrian tram rail_urban rail rail_electric rail_fast ship" speed="36.11" length="15.39" width="3.50" shape="97.17,-572.68 97.49,-571.96 97.82,-571.23 98.16,-570.50 98.51,-569.78 98.87,-569.05 99.24,-568.33 99.62,-567.60 100.01,-566.88 100.40,-566.16 100.80,-565.44 101.21,-564.73 101.61,-564.02 102.03,-563.31 102.44,-562.61 102.86,-561.92 103.28,-561.22 103.69,-560.54 104.11,-559.85 104.53,-559.18"/>
    </edge>
    <edge id=":20_7" function="internal">
        <lane id=":20_7_0" index="0" disallow="pedestrian tram rail_urban rail rail_electric rail_fast ship" speed="14.17" length="21.11" width="3.50" shape="97.17,-572.69 97.71,-571.13 97.99,-569.50 97.98,-567.86 97.69,-566.23 97.15,-564.67 96.11,-562.73 94.44,-560.54 92.52,-558.58 88.97,-554.84"/>
    </edge>
    <edge id=":22_0" function="internal">
        <lane id=":22_0_0" index="0" disallow="pedestrian tram rail_urban rail rail_electric rail_fast ship" speed="36.11" length="17.04" width="3.50" shape="68.59,-625.55 65.49,-633.50 62.40,-641.43"/>
        <lane id=":22_0_1" index="1" disallow="pedestrian tram rail_urban rail rail_electric rail_fast ship" speed="36.11" length="17.04" width="3.50" shape="71.85,-626.82 68.75,-634.77 65.66,-642.70"/>
    </edge>
    <edge id=":22_2" function="internal">
        <lane id=":22_2_0" index="0" disallow="pedestrian tram rail_urban rail rail_electric rail_fast ship" speed="8.46" length="14.40" width="3.49" shape="71.85,-626.82 71.35,-628.42 71.13,-630.06 71.26,-631.72 71.79,-633.29 72.67,-634.70 73.80,-635.91 75.57,-637.24 77.50,-638.32"/>
    </edge>
    <edge id=":22_3" function="internal">
        <lane id=":22_3_0" index="0" disallow="pedestrian tram rail_urban rail rail_electric rail_fast ship" speed="7.20" length="12.22" width="3.49" shape="68.92,-643.98 69.14,-643.43 69.38,-642.88 69.62,-642.33 69.88,-641.80 70.16,-641.27 70.45,-640.76 70.77,-640.26 71.11,-639.77 71.48,-639.30 71.87,-638.86 72.30,-638.45 72.77,-638.09 73.27,-637.79 73.81,-637.57 74.37,-637.40 74.95,-637.35 75.55,-637.44 76.13,-637.63 77.50,-638.32"/>
    </edge>
    <edge id=":22_4" function="internal">
        <lane id=":22_4_0" index="0" disallow="pedestrian tram rail_urban rail rail_electric rail_fast ship" speed="36.11" length="17.05" width="3.50" shape="68.92,-643.98 72.01,-636.03 75.11,-628.09"/>
    </edge>

    <edge id="1113" from="20" to="21" priority="3" type="highway.residential" spreadType="center" length="19.27" shape="96.25,-560.64 111.98,-541.03">
        <lane id="1113_0" index="0" disallow="pedestrian tram rail_urban rail rail_electric rail_fast ship" speed="36.11" length="19.27" width="3.50" customShape="1" shape="104.53,-559.18 108.75,-552.34 114.91,-542.95"/>
    </edge>
    <edge id="1745" from="20" to="21" priority="3" type="highway.residential" spreadType="center" length="28.72">
        <lane id="1745_0" index="0" disallow="pedestrian tram rail_urban rail rail_electric rail_fast ship" speed="36.11" length="28.72" width="3.49" customShape="1" shape="92.03,-560.77 93.01,-560.65 94.52,-560.11 96.38,-559.07 98.51,-557.45 101.24,-554.89 104.44,-551.29 108.36,-546.22 111.99,-541.01"/>
    </edge>
    <edge id="1746" from="20" to="21" priority="3" type="highway.residential" spreadType="center" length="21.86">
        <lane id="1746_0" index="0" disallow="pedestrian tram rail_urban rail rail_electric rail_fast ship" speed="36.11" length="21.86" width="3.49" customShape="1" shape="95.75,-556.35 96.46,-555.64 97.56,-554.47 98.61,-553.27 99.64,-552.04 100.65,-550.79 101.64,-549.53 102.61,-548.25 103.57,-546.97 104.51,-545.67 105.44,-544.36 106.36,-543.05 107.27,-541.73 108.18,-540.41 109.08,-539.07"/>
    </edge>
    <edge id="28" from="22" to="3" priority="3" type="highway.residential" spreadType="center" length="70.00" shape="67.80,-634.19 38.54,-707.26">
        <lane id="28_0" index="0" disallow="pedestrian tram rail_urban rail rail_electric rail_fast ship" speed="36.11" length="70.00" width="3.50" customShape="1" shape="62.40,-641.43 36.91,-706.62"/>
        <lane id="28_1" index="1" disallow="pedestrian tram rail_urban rail rail_electric rail_fast ship" speed="36.11" length="70.01" width="3.50" customShape="1" shape="65.66,-642.69 40.17,-707.89"/>
    </edge>
    <edge id="30" from="16" to="22" priority="3" type="highway.residential" spreadType="center" length="70.00" shape="43.43,-709.17 72.62,-636.25">
        <lane id="30_0" index="0" disallow="pedestrian tram rail_urban rail rail_electric rail_fast ship" speed="36.11" length="70.00" width="3.50" customShape="1" shape="43.43,-709.17 68.92,-643.98"/>
    </edge>
    <edge id="32" from="20" to="22" priority="3" type="highway.residential" spreadType="center" length="59.77" shape="91.62,-558.40 67.60,-634.74">
        <lane id="32_0" index="0" disallow="pedestrian tram rail_urban rail rail_electric rail_fast ship" speed="36.11" length="59.90" width="3.50" customShape="1" shape="90.74,-569.93 88.13,-576.02 81.80,-591.50 68.58,-625.58"/>
        <lane id="32_1" index="1" disallow="pedestrian tram rail_urban rail rail_electric rail_fast ship" speed="36.11" length="59.77" width="3.50" customShape="1" shape="93.95,-571.30 91.36,-577.37 85.06,-592.78 71.84,-626.83"/>
    </edge>
    <edge id="34" from="22" to="20" priority="3" type="highway.residential" spreadType="center" length="59.64" shape="72.64,-636.20 96.63,-559.98">
        <lane id="34_0" index="0" disallow="pedestrian tram rail_urban rail rail_electric rail_fast ship" speed="36.11" length="59.64" width="3.50" customShape="1" shape="75.11,-628.09 88.31,-594.09 94.58,-578.74 97.17,-572.68"/>
    </edge>
    <edge id="640" from="22" to="5" priority="3" type="highway.residential" spreadType="center" length="60.39">
        <lane id="640_0" index="0" disallow="pedestrian tram rail_urban rail rail_electric rail_fast ship" speed="36.11" length="60.39" width="3.49" customShape="1" shape="77.50,-638.32 103.68,-652.38 130.70,-666.90"/>
    </edge>
    <edge id="648" from="19" to="20" priority="3" type="highway.residential" spreadType="center" length="45.81" shape="99.98,-528.52 93.24,-559.17">
        <lane id="648_0" index="0" disallow="pedestrian tram rail_urban rail rail_electric rail_fast ship" speed="36.11" length="45.81" width="3.49" customShape="1" shape="99.98,-528.52 97.97,-527.85 95.31,-527.24 92.99,-527.00 91.17,-527.06 89.37,-527.37 87.12,-528.13 85.52,-528.96 84.06,-530.06 82.76,-531.41 82.01,-532.52 81.45,-533.82 81.17,-535.19 81.04,-536.93 81.18,-539.22 81.71,-541.95 83.64,-548.39 84.61,-552.93 85.23,-555.16 86.00,-556.85 86.34,-557.34"/>
    </edge>
    <edge id="649" from="20" to="13" priority="3" type="highway.residential" spreadType="center" length="36.36" shape="96.69,-559.69 98.80,-531.82">
        <lane id="649_0" index="0" disallow="pedestrian tram rail_urban rail rail_electric rail_fast ship" speed="36.11" length="36.36" width="3.50" customShape="1" shape="88.97,-554.84 88.48,-553.84 87.97,-551.95 87.57,-550.02 87.17,-548.10 86.66,-546.21 86.07,-544.34 85.49,-542.46 85.00,-540.56 84.67,-538.63 84.59,-536.67 84.93,-534.76 85.92,-533.12 87.44,-531.89 89.22,-531.06 91.12,-530.59 93.08,-530.50 95.03,-530.74 96.94,-531.20 98.80,-531.82"/>
    </edge>
    <edge id="705" from="10" to="20" priority="3" type="highway.residential" spreadType="center" length="25.14" shape="107.82,-531.99 91.82,-557.98">
        <lane id="705_0" index="0" disallow="pedestrian tram rail_urban rail rail_electric rail_fast ship" speed="36.11" length="25.14" width="3.44" customShape="1" shape="106.17,-531.45 104.60,-536.20 104.56,-536.31 104.52,-536.43 98.27,-555.32"/>
        <lane id="705_1" index="1" disallow="pedestrian tram rail_urban rail rail_electric rail_fast ship" speed="36.11" length="26.00" width="3.50" customShape="1" shape="109.47,-532.53 107.92,-537.29 107.89,-537.39 107.85,-537.49 107.82,-537.60 101.40,-557.25"/>
    </edge>

    <junction id="10" type="dead_end" x="107.82" y="-531.99" incLanes="" intLanes="" shape="111.14,-533.07 104.54,-530.92" rightOfWay="edgePriority"/>
    <junction id="13" type="dead_end" x="98.80" y="-531.82" incLanes="649_0" intLanes="" shape="98.25,-533.48 99.36,-530.16" rightOfWay="edgePriority"/>
    <junction id="16" type="dead_end" x="43.43" y="-709.17" incLanes="" intLanes="" shape="41.80,-708.54 45.06,-709.81" rightOfWay="edgePriority"/>
    <junction id="19" type="dead_end" x="99.98" y="-528.52" incLanes="" intLanes="" shape="99.43,-530.18 100.53,-526.87" rightOfWay="edgePriority"/>
    <junction id="20" type="priority" x="94.96" y="-559.45" incLanes="648_0 705_0 705_1 34_0" intLanes=":20_0_0 :20_1_0 :20_2_0 :20_3_0 :20_4_0 :20_4_1 :20_6_0 :20_7_0" shape="85.06,-558.55 90.30,-553.58 91.76,-555.41 92.62,-555.68 93.56,-555.52 94.58,-554.93 95.68,-553.92 95.81,-558.67 95.66,-558.07 95.89,-557.13 96.21,-556.07 96.53,-555.08 96.77,-554.39 106.01,-560.10 104.31,-562.83 103.03,-564.85 102.02,-566.54 101.09,-568.27 100.07,-570.42 98.78,-573.37 89.13,-569.24 90.90,-563.79 91.73,-561.43 92.50,-559.60 93.09,-558.77 91.08,-562.56 88.83,-561.90 87.80,-561.31 86.83,-560.56 85.92,-559.64">
        <request index="0" response="00110000" foes="00110000" cont="0"/>
        <request index="1" response="00000000" foes="00000000" cont="0"/>
        <request index="2" response="10001000" foes="10001000" cont="0"/>
        <request index="3" response="10000000" foes="10000100" cont="0"/>
        <request index="4" response="00000000" foes="10000001" cont="0"/>
        <request index="5" response="00000000" foes="10000001" cont="0"/>
        <request index="6" response="00000000" foes="00000000" cont="0"/>
        <request index="7" response="00110000" foes="00111100" cont="0"/>
    </junction>
    <junction id="21" type="dead_end" x="111.98" y="-541.03" incLanes="1113_0 1745_0 1746_0" intLanes="" shape="116.37,-543.91 113.44,-541.99 110.55,-540.03 107.63,-538.10"/>
    <junction id="22" type="priority" x="70.99" y="-635.64" incLanes="32_0 32_1 30_0" intLanes=":22_0_0 :22_0_1 :22_2_0 :22_3_0 :22_4_0" shape="66.95,-624.92 76.74,-628.72 75.89,-632.27 75.98,-633.72 76.41,-634.95 77.20,-635.98 78.32,-636.78 76.67,-639.86 74.42,-639.55 73.38,-640.10 72.38,-641.13 71.44,-642.64 70.55,-644.61 60.77,-640.79">
        <request index="0" response="00000" foes="00000" cont="0"/>
        <request index="1" response="00000" foes="00000" cont="0"/>
        <request index="2" response="11000" foes="11000" cont="0"/>
        <request index="3" response="00000" foes="00100" cont="0"/>
        <request index="4" response="00000" foes="00100" cont="0"/>
    </junction>
    <junction id="3" type="dead_end" x="38.54" y="-707.26" incLanes="28_0 28_1" intLanes="" shape="35.28,-705.98 41.80,-708.53" rightOfWay="edgePriority"/>
    <junction id="5" type="dead_end" x="130.70" y="-666.90" incLanes="640_0" intLanes="" shape="129.88,-668.44 131.53,-665.36" rightOfWay="edgePriority"/>

    <connection from="30" to="640" fromLane="0" toLane="0" contPos="-4.00" shape="68.92,-643.98 69.14,-643.43 69.38,-642.88 69.62,-642.33 69.88,-641.80 70.16,-641.27 70.45,-640.76 70.77,-640.26 71.11,-639.77 71.48,-639.30 71.87,-638.86 72.30,-638.45 72.77,-638.09 73.27,-637.79 73.81,-637.57 74.37,-637.40 74.95,-637.35 75.55,-637.44 76.13,-637.63 76.66,-637.87" via=":22_3_0" dir="r" state="M"/>
    <connection from="30" to="34" fromLane="0" toLane="0" contPos="-4.00" shape="68.92,-643.98 72.01,-636.03 75.11,-628.09" via=":22_4_0" dir="s" state="M"/>
    <connection from="32" to="28" fromLane="0" toLane="0" contPos="-4.00" shape="68.58,-625.58 65.49,-633.50 62.40,-641.43" via=":22_0_0" dir="s" state="M"/>
    <connection from="32" to="28" fromLane="1" toLane="1" contPos="-4.00" shape="71.84,-626.83 68.75,-634.77 65.66,-642.69" via=":22_0_1" dir="s" state="M"/>
    <connection from="32" to="640" fromLane="1" toLane="0" contPos="-4.00" shape="71.84,-626.83 71.35,-628.42 71.13,-630.06 71.26,-631.72 71.79,-633.29 72.67,-634.70 73.80,-635.91 75.57,-637.24 76.66,-637.87" via=":22_2_0" dir="l" state="m"/>
    <connection from="34" to="1113" fromLane="0" toLane="0" contPos="-4.00" via=":20_6_0" dir="s" state="M"/>
    <connection from="34" to="649" fromLane="0" toLane="0" contPos="-4.00" shape="97.17,-572.69 97.71,-571.13 97.99,-569.50 97.98,-567.86 97.69,-566.23 97.15,-564.67 96.11,-562.73 94.44,-560.54 92.52,-558.58 90.69,-557.01" via=":20_7_0" dir="s" state="m"/>
    <connection from="648" to="32" fromLane="0" toLane="0" contPos="-4.00" shape="88.50,-559.74 89.70,-560.89 90.69,-562.25 91.37,-563.80 91.65,-565.46 91.56,-567.14 91.17,-568.78 90.74,-569.93" via=":20_0_0" dir="s" state="m"/>
    <connection from="648" to="1745" fromLane="0" toLane="0" contPos="-4.00" via=":20_1_0" dir="l" state="M"/>
    <connection from="648" to="1746" fromLane="0" toLane="0" contPos="-4.00" via=":20_2_0" dir="l" state="m"/>
    <connection from="705" to="649" fromLane="0" toLane="0" contPos="-4.00" shape="104.45,-536.65 103.99,-537.99 103.54,-539.33 103.07,-540.67 102.59,-542.00 102.09,-543.33 101.58,-544.65 101.05,-545.97 100.50,-547.27 99.92,-548.57 99.32,-549.85 98.67,-551.11 97.99,-552.35 97.24,-553.55 96.42,-554.70 95.49,-555.75 94.43,-556.65 93.24,-557.28 91.96,-557.51 90.69,-557.01" via=":20_3_0" dir="r" state="m"/>
    <connection from="705" to="32" fromLane="0" toLane="0" contPos="-4.00" shape="104.45,-536.65 101.98,-543.19 94.79,-560.47 90.74,-569.93" via=":20_4_0" dir="s" state="M"/>
    <connection from="705" to="32" fromLane="1" toLane="1" contPos="-4.00" shape="107.76,-537.78 105.24,-544.46 97.98,-561.91 93.95,-571.30" via=":20_4_1" dir="s" state="M"/>

    <connection from=":20_0" to="32" fromLane="0" toLane="0" dir="s" state="M"/>
    <connection from=":20_1" to="1745" fromLane="0" toLane="0" dir="l" state="M"/>
    <connection from=":20_2" to="1746" fromLane="0" toLane="0" dir="l" state="M"/>
    <connection from=":20_3" to="649" fromLane="0" toLane="0" dir="r" state="M"/>
    <connection from=":20_4" to="32" fromLane="0" toLane="0" dir="s" state="M"/>
    <connection from=":20_4" to="32" fromLane="1" toLane="1" dir="s" state="M"/>
    <connection from=":20_6" to="1113" fromLane="0" toLane="0" dir="s" state="M"/>
    <connection from=":20_7" to="649" fromLane="0" toLane="0" dir="s" state="M"/>
    <connection from=":22_0" to="28" fromLane="0" toLane="0" dir="s" state="M"/>
    <connection from=":22_0" to="28" fromLane="1" toLane="1" dir="s" state="M"/>
    <connection from=":22_2" to="640" fromLane="0" toLane="0" dir="l" state="M"/>
    <connection from=":22_3" to="640" fromLane="0" toLane="0" dir="r" state="M"/>
    <connection from=":22_4" to="34" fromLane="0" toLane="0" dir="s" state="M"/>

</net>