<routes>
	<vehicle depart="0.1" departLane="0" departPos="20.958787323207027" departSpeed="1.6092866" id="37" type="passenger">
		<route edges="22396 22165"/>
	</vehicle>
</routes>
