<!-- generated on Tue Feb  9 22:16:47 2021 by Eclipse SUMO netconvert Version 1.8.0
<configuration xmlns:xsi="http://www.w3.org/2001/XMLSchema-instance" xsi:noNamespaceSchemaLocation="http://sumo.dlr.de/xsd/netconvertConfiguration.xsd">

    <input>
        <node-files value="./converted_scenarios/scenario-factory/DEU_BadEssen-3_1_I-1-1/DEU_BadEssen-3_1_I-1-1.nod.xml"/>
        <edge-files value="./converted_scenarios/scenario-factory/DEU_BadEssen-3_1_I-1-1/DEU_BadEssen-3_1_I-1-1.edg.xml"/>
        <connection-files value="./converted_scenarios/scenario-factory/DEU_BadEssen-3_1_I-1-1/DEU_BadEssen-3_1_I-1-1.con.xml"/>
        <tllogic-files value="./converted_scenarios/scenario-factory/DEU_BadEssen-3_1_I-1-1/DEU_BadEssen-3_1_I-1-1.tll.xml"/>
        <type-files value="/home/zen/commonroad-interactive-benchmarks/install/commonroad-map-tool/crmapconverter/sumo_map/templates/DEU.typ.xml"/>
    </input>

    <output>
        <output-file value="./converted_scenarios/scenario-factory/DEU_BadEssen-3_1_I-1-1/DEU_BadEssen-3_1_I-1-1.net.xml"/>
    </output>

    <processing>
        <geometry.remove.keep-edges.explicit value="true"/>
        <geometry.avoid-overlap value="true"/>
        <offset.disable-normalization value="true"/>
    </processing>

    <junctions>
        <no-turnarounds value="true"/>
        <junctions.internal-link-detail value="20"/>
    </junctions>

    <report>
        <aggregate-warnings value="5"/>
    </report>

    <random_number>
        <seed value="1234"/>
    </random_number>

</configuration>
--><net xmlns:xsi="http://www.w3.org/2001/XMLSchema-instance" version="1.6" junctionCornerDetail="5" junctionLinkDetail="20" limitTurnSpeed="5.50" xsi:noNamespaceSchemaLocation="http://sumo.dlr.de/xsd/net_file.xsd">

    <location netOffset="0.00,0.00" convBoundary="-508.39,270.14,-216.80,680.67" origBoundary="-508.39,270.14,-216.80,680.67" projParameter="!"/>

    <type id="highway.bridleway" priority="1" speed="2.78" allow="pedestrian" oneway="1" width="2.00"/>
    <type id="highway.bus_guideway" priority="1" speed="27.78" allow="bus" oneway="1"/>
    <type id="highway.cycleway" priority="1" speed="8.33" allow="bicycle" oneway="0" width="1.00"/>
    <type id="highway.footway" priority="1" speed="2.78" allow="pedestrian" oneway="1" width="2.00"/>
    <type id="highway.ford" priority="1" speed="2.78" allow="army" oneway="0"/>
    <type id="highway.living_street" priority="2" speed="2.78" disallow="tram rail_urban rail rail_electric rail_fast ship" oneway="0"/>
    <type id="highway.motorway" priority="14" speed="39.44" allow="private emergency authority army vip passenger hov taxi bus coach delivery truck trailer motorcycle evehicle custom1 custom2" oneway="1"/>
    <type id="highway.motorway_link" priority="9" speed="22.22" allow="private emergency authority army vip passenger hov taxi bus coach delivery truck trailer motorcycle evehicle custom1 custom2" oneway="1"/>
    <type id="highway.path" priority="1" speed="2.78" allow="pedestrian bicycle" oneway="0" width="2.00"/>
    <type id="highway.pedestrian" priority="1" speed="2.78" allow="pedestrian" oneway="1" width="2.00"/>
    <type id="highway.primary" priority="12" speed="27.78" disallow="pedestrian tram rail_urban rail rail_electric rail_fast ship" oneway="0"/>
    <type id="highway.primary_link" priority="7" speed="22.22" disallow="pedestrian tram rail_urban rail rail_electric rail_fast ship" oneway="0"/>
    <type id="highway.raceway" priority="15" speed="83.33" allow="vip" oneway="0"/>
    <type id="highway.residential" priority="3" speed="13.89" disallow="pedestrian tram rail_urban rail rail_electric rail_fast ship" oneway="0"/>
    <type id="highway.secondary" priority="11" speed="27.78" disallow="pedestrian tram rail_urban rail rail_electric rail_fast ship" oneway="0"/>
    <type id="highway.secondary_link" priority="6" speed="22.22" disallow="pedestrian tram rail_urban rail rail_electric rail_fast ship" oneway="0"/>
    <type id="highway.service" priority="1" speed="5.56" allow="pedestrian delivery bicycle" oneway="0"/>
    <type id="highway.stairs" priority="1" speed="1.39" allow="pedestrian" oneway="1" width="2.00"/>
    <type id="highway.step" priority="1" speed="1.39" allow="pedestrian" oneway="1" width="2.00"/>
    <type id="highway.steps" priority="1" speed="1.39" allow="pedestrian" oneway="1" width="2.00"/>
    <type id="highway.tertiary" priority="10" speed="22.22" disallow="pedestrian tram rail_urban rail rail_electric rail_fast ship" oneway="0"/>
    <type id="highway.tertiary_link" priority="5" speed="22.22" disallow="pedestrian tram rail_urban rail rail_electric rail_fast ship" oneway="0"/>
    <type id="highway.track" priority="1" speed="5.56" allow="pedestrian motorcycle moped bicycle" oneway="0"/>
    <type id="highway.trunk" priority="13" speed="27.78" disallow="pedestrian bicycle tram rail_urban rail rail_electric rail_fast ship" oneway="0"/>
    <type id="highway.trunk_link" priority="8" speed="22.22" disallow="pedestrian bicycle tram rail_urban rail rail_electric rail_fast ship" oneway="0"/>
    <type id="highway.unclassified" priority="4" speed="13.89" disallow="pedestrian tram rail_urban rail rail_electric rail_fast ship" oneway="0"/>
    <type id="highway.unsurfaced" priority="1" speed="8.33" disallow="tram rail_urban rail rail_electric rail_fast ship" oneway="0"/>
    <type id="railway.highspeed" priority="21" speed="69.44" allow="rail_fast" oneway="1"/>
    <type id="railway.light_rail" priority="19" speed="27.78" allow="rail_urban" oneway="1"/>
    <type id="railway.preserved" priority="16" speed="27.78" allow="rail" oneway="1"/>
    <type id="railway.rail" priority="20" speed="44.44" allow="rail" oneway="1"/>
    <type id="railway.subway" priority="18" speed="27.78" allow="rail_urban" oneway="1"/>
    <type id="railway.tram" priority="17" speed="13.89" allow="tram" oneway="1"/>

    <edge id=":101_0" function="internal">
        <lane id=":101_0_0" index="0" disallow="pedestrian tram rail_urban rail rail_electric rail_fast ship" speed="11.27" length="27.49" width="3.50" shape="-368.98,520.00 -369.52,519.00 -370.71,517.07 -372.05,515.31 -373.57,513.74 -375.29,512.40 -376.17,511.87 -377.12,511.40 -378.10,511.01 -379.11,510.70 -380.12,510.49 -382.30,510.28 -384.48,510.37 -386.67,510.72 -388.84,511.29 -392.07,512.48"/>
    </edge>
    <edge id=":101_1" function="internal">
        <lane id=":101_1_0" index="0" disallow="pedestrian tram rail_urban rail rail_electric rail_fast ship" speed="36.11" length="32.00" width="3.50" shape="-368.98,520.00 -371.74,514.20 -374.13,508.27 -375.84,503.22 -377.28,498.09 -378.44,492.89 -378.99,489.74"/>
    </edge>
    <edge id=":101_2" function="internal">
        <lane id=":101_2_0" index="0" disallow="pedestrian tram rail_urban rail rail_electric rail_fast ship" speed="36.11" length="30.88" width="3.50" shape="-375.54,489.20 -375.00,492.22 -373.89,497.25 -372.50,502.20 -370.85,507.07 -368.53,512.80 -365.87,518.40"/>
    </edge>
    <edge id=":101_3" function="internal">
        <lane id=":101_3_0" index="0" disallow="pedestrian tram rail_urban rail rail_electric rail_fast ship" speed="12.87" length="31.08" width="3.50" shape="-375.54,489.20 -375.37,490.46 -375.28,492.95 -375.52,495.49 -376.14,497.97 -377.12,500.34 -378.43,502.52 -380.00,504.49 -381.76,506.25 -383.67,507.80 -385.69,509.18 -388.82,510.96 -392.07,512.48"/>
    </edge>
    <edge id=":101_4" function="internal">
        <lane id=":101_4_0" index="0" disallow="pedestrian tram rail_urban rail rail_electric rail_fast ship" speed="11.90" length="26.42" width="3.50" shape="-393.44,509.25 -390.55,507.92 -387.79,506.36 -386.04,505.18 -384.38,503.87 -382.86,502.40 -381.52,500.77 -380.40,498.98 -379.55,497.04 -379.01,495.00 -378.79,492.90 -378.86,490.79 -378.99,489.74"/>
    </edge>
    <edge id=":101_5" function="internal">
        <lane id=":101_5_0" index="0" disallow="pedestrian tram rail_urban rail rail_electric rail_fast ship" speed="12.29" length="32.79" width="3.50" shape="-393.44,509.25 -389.74,507.90 -387.20,507.24 -384.61,506.83 -381.99,506.73 -379.38,506.99 -378.10,507.27 -376.85,507.65 -375.63,508.14 -374.46,508.73 -373.34,509.41 -371.28,511.03 -369.46,512.92 -367.87,515.00 -366.49,517.23 -365.87,518.40"/>
    </edge>
    <edge id=":102_0" function="internal">
        <lane id=":102_0_0" index="0" disallow="pedestrian tram rail_urban rail rail_electric rail_fast ship" speed="10.78" length="27.77" width="3.50" shape="-389.02,455.44 -389.44,454.37 -390.42,452.29 -391.57,450.36 -392.96,448.61 -393.70,447.87 -394.51,447.19 -395.38,446.59 -396.30,446.08 -397.27,445.66 -398.27,445.34 -399.31,445.12 -400.37,444.99 -401.43,444.95 -403.67,445.10 -405.89,445.52 -408.09,446.16 -411.38,447.46"/>
    </edge>
    <edge id=":102_1" function="internal">
        <lane id=":102_1_0" index="0" disallow="pedestrian tram rail_urban rail rail_electric rail_fast ship" speed="36.11" length="33.20" width="3.50" shape="-389.02,455.44 -394.15,441.86 -401.02,424.49"/>
    </edge>
    <edge id=":102_2" function="internal">
        <lane id=":102_2_0" index="0" disallow="pedestrian tram rail_urban rail rail_electric rail_fast ship" speed="36.11" length="33.31" width="3.50" shape="-397.79,423.15 -390.89,440.60 -385.75,454.21"/>
    </edge>
    <edge id=":102_3" function="internal">
        <lane id=":102_3_0" index="0" disallow="pedestrian tram rail_urban rail rail_electric rail_fast ship" speed="11.87" length="31.56" width="3.50" shape="-397.78,423.15 -396.91,425.69 -396.39,428.26 -396.28,429.56 -396.29,430.88 -396.41,432.18 -396.66,433.47 -397.03,434.72 -397.53,435.94 -398.13,437.10 -398.83,438.21 -400.49,440.24 -402.39,442.04 -404.47,443.64 -407.82,445.70 -411.38,447.46"/>
    </edge>
    <edge id=":102_4" function="internal">
        <lane id=":102_4_0" index="0" disallow="pedestrian tram rail_urban rail rail_electric rail_fast ship" speed="10.81" length="26.10" width="3.50" shape="-412.81,444.27 -409.69,442.73 -406.76,440.94 -404.98,439.61 -403.37,438.12 -401.96,436.45 -401.40,435.60 -400.90,434.69 -400.49,433.74 -400.18,432.77 -399.96,431.77 -399.84,430.75 -399.82,429.72 -399.89,428.71 -400.30,426.59 -401.02,424.49"/>
    </edge>
    <edge id=":102_5" function="internal">
        <lane id=":102_5_0" index="0" disallow="pedestrian tram rail_urban rail rail_electric rail_fast ship" speed="11.80" length="33.59" width="3.50" shape="-412.81,444.27 -409.03,442.78 -406.45,442.03 -403.81,441.54 -401.13,441.37 -399.79,441.43 -398.46,441.61 -397.15,441.90 -395.88,442.31 -394.65,442.86 -393.48,443.52 -392.38,444.29 -391.36,445.16 -390.41,446.11 -388.75,448.22 -387.38,450.53 -386.24,452.96 -385.75,454.21"/>
    </edge>
    <edge id=":103_0" function="internal">
        <lane id=":103_0_0" index="0" disallow="pedestrian tram rail_urban rail rail_electric rail_fast ship" speed="10.20" length="28.29" width="3.50" shape="-379.03,489.52 -379.52,487.11 -380.28,484.81 -380.75,483.77 -381.31,482.79 -381.96,481.88 -382.69,481.07 -383.52,480.38 -384.43,479.80 -385.41,479.35 -386.46,479.03 -387.56,478.83 -388.70,478.73 -389.85,478.73 -392.26,479.00 -394.65,479.53 -397.03,480.26 -400.58,481.66"/>
    </edge>
    <edge id=":103_1" function="internal">
        <lane id=":103_1_0" index="0" disallow="pedestrian tram rail_urban rail rail_electric rail_fast ship" speed="36.11" length="35.36" width="3.50" shape="-379.03,489.52 -379.20,488.50 -380.46,482.42 -382.32,475.41 -385.11,466.48 -388.95,455.63"/>
    </edge>
    <edge id=":103_2" function="internal">
        <lane id=":103_2_0" index="0" disallow="pedestrian tram rail_urban rail rail_electric rail_fast ship" speed="36.11" length="36.03" width="3.50" shape="-385.67,454.40 -381.78,465.42 -378.93,474.51 -377.04,481.68 -375.75,487.89 -375.58,488.94"/>
    </edge>
    <edge id=":103_3" function="internal">
        <lane id=":103_3_0" index="0" disallow="pedestrian tram rail_urban rail rail_electric rail_fast ship" speed="12.61" length="35.10" width="3.50" shape="-385.67,454.40 -384.87,456.91 -384.33,459.45 -384.11,462.04 -384.26,464.63 -384.49,465.90 -384.82,467.16 -385.25,468.38 -385.78,469.57 -387.11,471.79 -388.74,473.81 -390.60,475.62 -392.64,477.23 -395.91,479.33 -399.37,481.12 -400.58,481.66"/>
    </edge>
    <edge id=":103_4" function="internal">
        <lane id=":103_4_0" index="0" disallow="pedestrian tram rail_urban rail rail_electric rail_fast ship" speed="11.62" length="29.72" width="3.50" shape="-401.98,478.45 -400.92,477.98 -397.84,476.40 -394.95,474.56 -393.20,473.19 -391.60,471.67 -390.21,470.00 -389.08,468.15 -388.65,467.22 -388.28,466.24 -388.00,465.22 -387.80,464.22 -387.65,462.07 -387.82,459.92 -388.26,457.78 -388.95,455.63"/>
    </edge>
    <edge id=":103_5" function="internal">
        <lane id=":103_5_0" index="0" disallow="pedestrian tram rail_urban rail rail_electric rail_fast ship" speed="11.28" length="34.84" width="3.50" shape="-401.98,478.45 -397.91,476.85 -395.13,476.01 -392.29,475.40 -389.40,475.12 -387.95,475.14 -386.51,475.29 -385.09,475.58 -383.72,476.05 -382.41,476.69 -381.21,477.49 -380.12,478.45 -379.17,479.55 -378.34,480.74 -377.64,482.01 -377.05,483.34 -376.16,486.10 -375.58,488.94"/>
    </edge>
    <edge id=":104_0" function="internal">
        <lane id=":104_0_0" index="0" disallow="pedestrian tram rail_urban rail rail_electric rail_fast ship" speed="11.22" length="27.96" width="3.50" shape="-353.11,553.48 -353.61,552.48 -354.73,550.57 -356.00,548.82 -357.44,547.25 -359.09,545.91 -359.93,545.37 -360.85,544.89 -361.80,544.49 -362.78,544.17 -363.79,543.93 -364.79,543.77 -366.93,543.67 -369.08,543.85 -371.23,544.25 -373.35,544.85 -376.50,546.04"/>
    </edge>
    <edge id=":104_1" function="internal">
        <lane id=":104_1_0" index="0" disallow="pedestrian tram rail_urban rail rail_electric rail_fast ship" speed="36.11" length="36.83" width="3.50" shape="-353.11,553.48 -363.49,531.19 -368.88,520.20"/>
    </edge>
    <edge id=":104_2" function="internal">
        <lane id=":104_2_0" index="0" disallow="pedestrian tram rail_urban rail rail_electric rail_fast ship" speed="11.96" length="32.98" width="3.50" shape="-353.11,553.48 -354.17,551.04 -354.99,548.54 -355.54,545.96 -355.73,543.33 -355.66,542.02 -355.49,540.71 -355.20,539.43 -354.79,538.17 -354.27,536.96 -353.64,535.81 -352.92,534.71 -351.23,532.69 -349.29,530.91 -347.16,529.35 -344.91,527.99 -342.54,526.77"/>
    </edge>
    <edge id=":104_3" function="internal">
        <lane id=":104_3_0" index="0" disallow="pedestrian tram rail_urban rail rail_electric rail_fast ship" speed="10.92" length="27.37" width="3.49" shape="-341.04,529.94 -343.11,530.99 -345.05,532.17 -346.86,533.48 -348.49,534.96 -349.90,536.63 -350.46,537.49 -350.97,538.41 -351.39,539.37 -351.72,540.36 -351.96,541.38 -352.10,542.41 -352.15,543.43 -352.01,545.61 -351.56,547.75 -350.87,549.87 -349.96,551.96"/>
    </edge>
    <edge id=":104_4" function="internal">
        <lane id=":104_4_0" index="0" disallow="pedestrian tram rail_urban rail rail_electric rail_fast ship" speed="36.11" length="38.95" width="3.50" shape="-341.04,529.94 -359.64,538.58 -376.50,546.04"/>
    </edge>
    <edge id=":104_5" function="internal">
        <lane id=":104_5_0" index="0" disallow="pedestrian tram rail_urban rail rail_electric rail_fast ship" speed="12.22" length="33.60" width="3.50" shape="-341.04,529.94 -344.65,531.42 -347.13,532.14 -349.67,532.60 -352.25,532.73 -353.54,532.66 -354.82,532.49 -356.08,532.21 -357.31,531.82 -358.51,531.34 -359.66,530.75 -361.80,529.32 -363.73,527.60 -365.43,525.66 -366.94,523.56 -368.88,520.20"/>
    </edge>
    <edge id=":104_6" function="internal">
        <lane id=":104_6_0" index="0" disallow="pedestrian tram rail_urban rail rail_electric rail_fast ship" speed="11.19" length="28.14" width="3.50" shape="-365.76,518.60 -364.07,521.54 -362.79,523.32 -361.36,524.96 -359.76,526.39 -357.98,527.58 -357.08,528.04 -356.12,528.43 -355.13,528.74 -354.12,528.96 -353.09,529.11 -352.07,529.17 -349.91,529.06 -347.78,528.67 -345.68,528.06 -342.54,526.77"/>
    </edge>
    <edge id=":104_7" function="internal">
        <lane id=":104_7_0" index="0" disallow="pedestrian tram rail_urban rail rail_electric rail_fast ship" speed="36.11" length="36.91" width="3.49" shape="-365.76,518.60 -360.35,529.65 -349.96,551.96"/>
    </edge>
    <edge id=":104_8" function="internal">
        <lane id=":104_8_0" index="0" disallow="pedestrian tram rail_urban rail rail_electric rail_fast ship" speed="11.94" length="34.23" width="3.50" shape="-365.76,518.60 -364.68,520.92 -363.79,523.34 -363.14,525.87 -362.82,528.47 -362.80,529.85 -362.90,531.21 -363.12,532.55 -363.48,533.88 -363.95,535.17 -364.54,536.40 -365.25,537.57 -366.04,538.67 -366.93,539.70 -368.82,541.50 -370.90,543.05 -373.11,544.39 -376.50,546.04"/>
    </edge>
    <edge id=":104_9" function="internal">
        <lane id=":104_9_0" index="0" disallow="pedestrian tram rail_urban rail rail_electric rail_fast ship" speed="10.88" length="28.39" width="3.50" shape="-377.89,542.83 -374.94,541.40 -373.07,540.27 -371.32,538.97 -369.73,537.47 -369.02,536.64 -368.38,535.76 -367.81,534.83 -367.33,533.85 -366.94,532.83 -366.66,531.77 -366.48,530.70 -366.39,529.61 -366.40,528.52 -366.66,526.35 -367.20,524.23 -367.95,522.18 -368.88,520.20"/>
    </edge>
    <edge id=":104_10" function="internal">
        <lane id=":104_10_0" index="0" disallow="pedestrian tram rail_urban rail rail_electric rail_fast ship" speed="36.11" length="38.83" width="3.50" shape="-377.89,542.83 -361.08,535.39 -342.54,526.77"/>
    </edge>
    <edge id=":104_11" function="internal">
        <lane id=":104_11_0" index="0" disallow="pedestrian tram rail_urban rail rail_electric rail_fast ship" speed="12.24" length="33.39" width="3.49" shape="-377.89,542.83 -374.29,541.47 -371.81,540.78 -369.29,540.31 -366.73,540.11 -364.17,540.24 -362.90,540.45 -361.66,540.75 -360.44,541.16 -359.26,541.67 -358.13,542.27 -357.05,542.97 -355.07,544.60 -353.34,546.50 -351.84,548.58 -350.55,550.80 -349.96,551.96"/>
    </edge>
    <edge id=":105_0" function="internal">
        <lane id=":105_0_0" index="0" disallow="pedestrian tram rail_urban rail rail_electric rail_fast ship" speed="10.42" length="25.44" width="3.50" shape="-401.08,424.33 -402.06,422.31 -402.64,421.37 -403.30,420.48 -404.04,419.66 -404.85,418.92 -405.75,418.27 -406.71,417.73 -407.73,417.30 -408.79,416.98 -409.87,416.77 -410.97,416.67 -412.08,416.65 -414.28,416.85 -416.44,417.29 -418.56,417.91 -421.65,419.11 -422.66,419.56"/>
    </edge>
    <edge id=":105_1" function="internal">
        <lane id=":105_1_0" index="0" disallow="pedestrian tram rail_urban rail rail_electric rail_fast ship" speed="36.11" length="34.92" width="3.50" shape="-401.08,424.33 -407.65,408.13 -414.20,391.97"/>
    </edge>
    <edge id=":105_2" function="internal">
        <lane id=":105_2_0" index="0" disallow="pedestrian tram rail_urban rail rail_electric rail_fast ship" speed="11.64" length="31.22" width="3.50" shape="-401.09,424.33 -401.95,421.84 -402.51,419.30 -402.65,418.01 -402.69,416.71 -402.61,415.41 -402.41,414.13 -402.08,412.87 -401.63,411.65 -401.07,410.48 -400.39,409.37 -399.62,408.32 -397.86,406.42 -395.86,404.76 -393.70,403.31 -390.26,401.47 -387.88,400.43"/>
    </edge>
    <edge id=":105_3" function="internal">
        <lane id=":105_3_0" index="0" disallow="pedestrian tram rail_urban rail rail_electric rail_fast ship" speed="10.56" length="25.61" width="3.50" shape="-386.56,403.67 -388.63,404.57 -391.63,406.16 -393.46,407.37 -395.14,408.74 -396.62,410.30 -397.23,411.10 -397.78,411.97 -398.24,412.88 -398.61,413.81 -398.88,414.78 -399.05,415.78 -399.13,416.79 -399.11,417.82 -399.02,418.82 -398.57,420.93 -397.86,422.97"/>
    </edge>
    <edge id=":105_4" function="internal">
        <lane id=":105_4_0" index="0" disallow="pedestrian tram rail_urban rail rail_electric rail_fast ship" speed="36.11" length="39.45" width="3.50" shape="-386.56,403.67 -400.90,409.74 -419.83,418.25 -422.66,419.56"/>
    </edge>
    <edge id=":105_5" function="internal">
        <lane id=":105_5_0" index="0" disallow="pedestrian tram rail_urban rail rail_electric rail_fast ship" speed="12.24" length="34.34" width="3.50" shape="-386.56,403.67 -388.96,404.55 -391.44,405.25 -394.01,405.73 -396.65,405.91 -399.30,405.73 -400.67,405.48 -401.98,405.11 -403.27,404.63 -404.50,404.04 -405.68,403.35 -406.78,402.56 -407.84,401.68 -409.66,399.78 -411.24,397.67 -412.58,395.43 -414.20,391.97"/>
    </edge>
    <edge id=":105_6" function="internal">
        <lane id=":105_6_0" index="0" disallow="pedestrian tram rail_urban rail rail_electric rail_fast ship" speed="11.24" length="28.77" width="3.50" shape="-410.96,390.63 -409.55,393.66 -408.41,395.56 -407.09,397.33 -405.56,398.92 -404.71,399.63 -403.81,400.27 -402.86,400.84 -401.86,401.31 -400.82,401.70 -399.76,402.00 -398.67,402.20 -396.46,402.35 -394.26,402.20 -392.08,401.79 -389.95,401.19 -387.88,400.43"/>
    </edge>
    <edge id=":105_7" function="internal">
        <lane id=":105_7_0" index="0" disallow="pedestrian tram rail_urban rail rail_electric rail_fast ship" speed="36.11" length="34.89" width="3.50" shape="-410.96,390.63 -404.40,406.81 -397.86,422.97"/>
    </edge>
    <edge id=":105_8" function="internal">
        <lane id=":105_8_0" index="0" disallow="pedestrian tram rail_urban rail rail_electric rail_fast ship" speed="12.58" length="35.42" width="3.50" shape="-410.96,390.63 -409.67,394.37 -409.06,396.92 -408.70,399.52 -408.66,402.14 -408.97,404.74 -409.27,406.01 -409.67,407.26 -410.17,408.48 -410.77,409.64 -412.22,411.83 -413.96,413.79 -415.93,415.52 -418.06,417.04 -421.48,418.99 -422.66,419.56"/>
    </edge>
    <edge id=":105_9" function="internal">
        <lane id=":105_9_0" index="0" disallow="pedestrian tram rail_urban rail rail_electric rail_fast ship" speed="11.61" length="29.99" width="3.50" shape="-424.13,416.38 -423.12,415.89 -420.09,414.18 -418.27,412.88 -416.60,411.41 -415.14,409.77 -413.92,407.94 -413.45,407.02 -413.04,406.03 -412.72,405.01 -412.47,404.00 -412.21,401.81 -412.24,399.62 -412.55,397.41 -413.07,395.23 -414.20,391.97"/>
    </edge>
    <edge id=":105_10" function="internal">
        <lane id=":105_10_0" index="0" disallow="pedestrian tram rail_urban rail rail_electric rail_fast ship" speed="36.11" length="39.61" width="3.50" shape="-424.13,416.38 -421.29,415.07 -402.28,406.53 -387.88,400.43"/>
    </edge>
    <edge id=":105_11" function="internal">
        <lane id=":105_11_0" index="0" disallow="pedestrian tram rail_urban rail rail_electric rail_fast ship" speed="11.50" length="31.14" width="3.50" shape="-424.13,416.38 -422.94,415.85 -419.37,414.49 -416.85,413.77 -414.25,413.28 -411.60,413.09 -410.20,413.14 -408.83,413.31 -407.46,413.61 -406.11,414.06 -404.82,414.65 -403.60,415.39 -402.47,416.25 -401.45,417.22 -400.53,418.27 -399.73,419.39 -399.01,420.58 -397.86,422.97"/>
    </edge>
    <edge id=":106_0" function="internal">
        <lane id=":106_0_0" index="0" disallow="pedestrian tram rail_urban rail rail_electric rail_fast ship" speed="16.53" length="32.53" width="3.50" shape="-328.70,569.01 -329.64,568.68 -331.64,568.31 -333.67,568.28 -335.69,568.49 -338.67,569.13 -341.58,570.03 -345.37,571.53 -349.96,573.70 -355.31,576.62 -358.83,578.71"/>
    </edge>
    <edge id=":106_1" function="internal">
        <lane id=":106_1_0" index="0" disallow="pedestrian tram rail_urban rail rail_electric rail_fast ship" speed="19.46" length="29.12" width="3.50" shape="-328.70,569.01 -332.66,567.29 -338.56,564.52 -343.38,561.94 -347.14,559.59 -349.84,557.51 -351.53,555.86 -352.33,554.84 -353.00,553.71"/>
    </edge>
    <edge id=":106_2" function="internal">
        <lane id=":106_2_0" index="0" disallow="pedestrian tram rail_urban rail rail_electric rail_fast ship" speed="18.25" length="26.66" width="3.50" shape="-349.88,552.14 -349.33,553.05 -348.68,553.84 -347.19,555.24 -344.71,557.06 -341.20,559.19 -336.66,561.57 -331.09,564.16 -327.35,565.78"/>
    </edge>
    <edge id=":106_3" function="internal">
        <lane id=":106_3_0" index="0" disallow="pedestrian tram rail_urban rail rail_electric rail_fast ship" speed="12.00" length="31.45" width="3.50" shape="-349.88,552.14 -348.83,554.58 -348.04,557.07 -347.54,559.64 -347.39,562.25 -347.47,563.55 -347.66,564.85 -347.95,566.12 -348.35,567.37 -348.86,568.58 -350.14,570.85 -351.74,572.93 -353.57,574.80 -355.57,576.48 -358.83,578.71"/>
    </edge>
    <edge id=":106_4" function="internal">
        <lane id=":106_4_0" index="0" disallow="pedestrian tram rail_urban rail rail_electric rail_fast ship" speed="10.89" length="26.06" width="3.50" shape="-360.55,575.66 -357.81,573.78 -356.10,572.35 -354.55,570.78 -353.22,569.06 -352.14,567.18 -351.75,566.23 -351.42,565.23 -351.17,564.21 -351.02,563.17 -350.95,562.15 -351.06,559.98 -351.47,557.85 -352.14,555.74 -353.00,553.71"/>
    </edge>
    <edge id=":106_5" function="internal">
        <lane id=":106_5_0" index="0" disallow="pedestrian tram rail_urban rail rail_electric rail_fast ship" speed="17.29" length="35.68" width="3.50" shape="-360.55,575.66 -356.91,573.50 -351.19,570.42 -346.25,568.12 -342.13,566.56 -338.91,565.62 -335.59,564.98 -333.27,564.80 -330.90,564.90 -328.55,565.36 -327.35,565.78"/>
    </edge>
    <edge id=":107_0" function="internal">
        <lane id=":107_0_0" index="0" disallow="pedestrian tram rail_urban rail rail_electric rail_fast ship" speed="28.63" length="45.78" width="3.50" shape="-398.09,583.01 -404.22,581.76 -419.45,578.84 -429.61,577.18 -435.70,576.43 -439.68,576.20 -441.49,576.28 -443.18,576.85"/>
    </edge>
    <edge id=":107_1" function="internal">
        <lane id=":107_1_0" index="0" disallow="pedestrian tram rail_urban rail rail_electric rail_fast ship" speed="11.82" length="55.72" width="3.50" shape="-398.09,583.01 -404.00,581.63 -407.90,580.49 -411.73,579.10 -413.65,578.23 -415.52,577.22 -417.34,575.97 -419.03,574.34 -420.31,572.17 -420.73,569.56 -420.13,567.07 -418.94,565.02 -417.50,563.33 -415.93,561.87 -414.29,560.57 -412.60,559.37 -409.15,557.23 -405.60,555.29 -400.21,552.67"/>
    </edge>
    <edge id=":107_2" function="internal">
        <lane id=":107_2_0" index="0" disallow="pedestrian tram rail_urban rail rail_electric rail_fast ship" speed="10.67" length="45.04" width="3.50" shape="-398.73,555.84 -403.41,558.12 -406.46,559.78 -409.41,561.60 -410.83,562.60 -412.19,563.68 -413.46,564.85 -414.60,566.16 -415.50,567.63 -415.95,569.30 -415.72,571.00 -414.85,572.48 -413.61,573.69 -412.18,574.68 -410.66,575.51 -409.08,576.22 -405.82,577.42 -402.49,578.39 -397.43,579.58"/>
    </edge>
    <edge id=":107_3" function="internal">
        <lane id=":107_3_0" index="0" disallow="pedestrian tram rail_urban rail rail_electric rail_fast ship" speed="36.11" length="49.18" width="3.50" shape="-398.73,555.84 -409.78,561.15 -428.08,570.23 -436.44,574.05 -443.18,576.85"/>
    </edge>
    <edge id=":107_4" function="internal">
        <lane id=":107_4_0" index="0" disallow="pedestrian tram rail_urban rail rail_electric rail_fast ship" speed="36.11" length="48.98" width="3.50" shape="-444.48,573.60 -437.80,570.83 -429.51,567.04 -411.26,557.97 -400.21,552.67"/>
    </edge>
    <edge id=":107_5" function="internal">
        <lane id=":107_5_0" index="0" disallow="pedestrian tram rail_urban rail rail_electric rail_fast ship" speed="29.18" length="47.75" width="3.50" shape="-444.48,573.60 -442.37,572.91 -440.26,572.76 -436.03,572.95 -429.72,573.67 -419.26,575.33 -403.65,578.30 -397.43,579.58"/>
    </edge>
    <edge id=":108_0" function="internal">
        <lane id=":108_0_0" index="0" disallow="pedestrian tram rail_urban rail rail_electric rail_fast ship" speed="10.90" length="29.14" width="3.50" shape="-271.91,357.91 -275.18,359.27 -277.21,360.34 -279.11,361.60 -280.82,363.07 -281.54,363.85 -282.21,364.70 -282.79,365.59 -283.28,366.53 -283.67,367.52 -283.96,368.54 -284.15,369.59 -284.24,370.66 -284.24,371.72 -283.99,373.96 -283.45,376.17 -282.68,378.35 -281.73,380.48"/>
    </edge>
    <edge id=":108_1" function="internal">
        <lane id=":108_1_0" index="0" disallow="pedestrian tram rail_urban rail rail_electric rail_fast ship" speed="36.11" length="38.95" width="3.50" shape="-271.91,357.91 -290.17,364.68 -307.34,371.44 -308.29,371.82"/>
    </edge>
    <edge id=":108_2" function="internal">
        <lane id=":108_2_0" index="0" disallow="pedestrian tram rail_urban rail rail_electric rail_fast ship" speed="12.37" length="34.92" width="3.50" shape="-271.91,357.91 -275.49,359.01 -277.99,359.52 -280.54,359.80 -283.14,359.78 -285.72,359.42 -287.04,359.08 -288.30,358.64 -289.52,358.10 -290.70,357.45 -291.84,356.70 -293.83,355.01 -295.57,353.06 -297.04,350.94 -298.28,348.71 -299.77,345.26"/>
    </edge>
    <edge id=":108_3" function="internal">
        <lane id=":108_3_0" index="0" disallow="pedestrian tram rail_urban rail rail_electric rail_fast ship" speed="11.38" length="29.38" width="3.50" shape="-296.49,344.04 -295.20,347.04 -294.14,348.94 -292.90,350.73 -291.45,352.35 -289.79,353.75 -288.88,354.35 -287.92,354.87 -286.93,355.31 -285.90,355.67 -284.84,355.94 -282.69,356.24 -280.51,356.25 -278.35,356.01 -276.22,355.58 -273.10,354.62"/>
    </edge>
    <edge id=":108_4" function="internal">
        <lane id=":108_4_0" index="0" disallow="pedestrian tram rail_urban rail rail_electric rail_fast ship" speed="36.11" length="39.33" width="3.50" shape="-296.49,344.04 -289.85,361.45 -285.14,372.94 -281.73,380.48"/>
    </edge>
    <edge id=":108_5" function="internal">
        <lane id=":108_5_0" index="0" disallow="pedestrian tram rail_urban rail rail_electric rail_fast ship" speed="12.35" length="34.38" width="3.50" shape="-296.49,344.04 -295.30,347.82 -294.75,350.41 -294.46,353.04 -294.48,355.68 -294.87,358.30 -295.22,359.58 -295.67,360.82 -296.23,362.02 -296.88,363.17 -297.63,364.26 -299.37,366.25 -301.37,367.98 -303.55,369.47 -305.87,370.74 -308.29,371.82"/>
    </edge>
    <edge id=":108_6" function="internal">