<!-- generated on 2020-12-18 15:42:48.672314 by ipykernel_launcher.py v1_2_0+5214-53edc58fcd
-->
<edges>
	<edge from="1" function="normal" id="6" length="12.018630218781322" numLanes="6" priority="1" speed="36.11111111111111" spreadType="center" to="2">
		<lane allow="pedestrian rail private passenger ship delivery vip emergency bicycle rail_electric army rail_urban trailer coach bus custom2 tram taxi evehicle custom1 motorcycle authority truck hov moped" index="0" length="12.018630218781322" shape="-45.41,0.41000000000000003 -41.260000000000005,0.3849999999999999 -33.379999999999995,0.32500000000000007" speed="36.11111111111111" width="3.8002105204843586"/>
		<lane allow="pedestrian rail private passenger ship delivery vip emergency bicycle rail_electric army rail_urban trailer coach custom2 tram taxi evehicle custom1 motorcycle authority hov moped" index="1" length="12.018630218781322" shape="-45.379999999999995,4.175 -43.28,4.125 -41.239999999999995,4.12 -33.365,4.075 -33.355000000000004,4.075" speed="36.11111111111111" width="3.64005494464026"/>
		<lane allow="pedestrian rail private passenger ship delivery vip emergency bicycle rail_electric army rail_urban trailer coach custom2 tram taxi evehicle custom1 motorcycle authority truck hov moped" index="2" length="12.018630218781322" shape="-45.355000000000004,7.6850000000000005 -43.315,7.630000000000001 -35.205,7.58 -33.325,7.535" speed="36.11111111111111" width="3.2501384585891104"/>
		<lane allow="pedestrian rail private passenger ship delivery vip emergency bicycle rail_electric army rail_urban trailer coach bus custom2 tram taxi evehicle custom1 motorcycle authority truck hov moped" index="3" length="12.018630218781322" shape="-45.325,11.055 -42.385,11.055 -38.43,10.955 -35.18,10.925 -33.3,10.870000000000001" speed="36.11111111111111" width="3.370237380363584"/>
		<lane allow="pedestrian rail private passenger ship delivery vip emergency bicycle rail_electric army rail_urban trailer coach custom2 tram taxi evehicle custom1 motorcycle authority truck hov moped" index="4" length="12.018630218781322" shape="-45.29,14.415 -42.355000000000004,14.415 -42.239999999999995,14.405000000000001 -38.35,14.254999999999999 -38.185,14.245000000000001 -33.275,14.24" speed="36.11111111111111" width="3.2100623046912977"/>
		<lane allow="pedestrian rail private passenger ship delivery vip emergency bicycle rail_electric army rail_urban trailer coach bus custom2 tram taxi evehicle custom1 motorcycle authority truck hov moped" index="5" length="12.018630218781322" shape="-45.269999999999996,17.785 -42.115,17.759999999999998 -41.72,17.75 -38.1,17.605 -37.615,17.605 -33.245,17.64" speed="36.11111111111111" width="3.4701296805739124"/>
	</edge>
	<edge from="2" function="normal" id="124" length="212.34820475233698" numLanes="6" priority="1" speed="36.11111111111111" spreadType="center" to="3">
		<lane allow="pedestrian rail private passenger ship delivery vip emergency bicycle rail_electric army rail_urban trailer coach custom2 tram taxi evehicle custom1 motorcycle authority hov moped" index="0" length="212.34820475233698" shape="-33.379999999999995,0.32500000000000007 -30.53,0.32999999999999996 -29.564999999999998,0.31000000000000005 -26.03,0.29000000000000015 -25.06,0.275 -21.46,0.22999999999999998 -20.490000000000002,0.21499999999999997 -16.875,0.17499999999999993 -15.905000000000001,0.15999999999999992 -12.375,0.1449999999999999 -11.405000000000001,0.125 -10.434999999999999,0.12 -7.785,0.10499999999999987 -6.8100000000000005,0.08499999999999996 -3.2350000000000003,0.04499999999999993 -2.2649999999999997,0.019999999999999907 1.38,0.0 2.35,-0.019999999999999907 5.75,-0.025000000000000022 6.720000000000001,-0.04999999999999993 10.3,-0.050000000000000044 11.27,-0.05999999999999994 15.059999999999999,-0.11499999999999999 16.03,-0.1349999999999999 19.58,-0.18499999999999994 20.56,-0.20500000000000007 24.265,-0.21000000000000008 25.240000000000002,-0.2250000000000001 28.73,-0.255 29.7,-0.275 33.3,-0.31000000000000005 34.165,-0.32500000000000007 34.265,-0.32500000000000007 37.965,-0.29000000000000004 38.935,-0.31000000000000005 42.465,-0.39 43.425,-0.405 46.965,-0.41999999999999993 47.935,-0.43499999999999994 51.644999999999996,-0.4700000000000001 52.615,-0.4899999999999999 55.925,-0.4950000000000001 56.900000000000006,-0.5149999999999999 60.585,-0.5449999999999999 61.55,-0.5650000000000001 65.075,-0.5200000000000001 66.03999999999999,-0.5399999999999999 69.72,-0.6150000000000001 70.695,-0.6300000000000001 71.555,-0.635 74.31,-0.6400000000000001 75.285,-0.66 78.78,-0.6699999999999999 79.745,-0.6900000000000001 83.305,-0.69 84.28,-0.7100000000000001 90.235,-0.7350000000000001 91.205,-0.7549999999999999 94.985,-0.7450000000000001 95.955,-0.765 99.755,-0.7700000000000001 100.735,-0.7850000000000001 104.485,-0.82 105.44999999999999,-0.835 108.985,-0.8499999999999999 109.96000000000001,-0.87 113.36,-0.8749999999999999 113.66,-0.875 114.63,-0.9149999999999999 115.3,-0.9450000000000001 118.39,-0.9850000000000001 119.36,-1.0150000000000001 123.195,-1.085 124.16499999999999,-1.105 127.97,-1.165 128.94,-1.19 132.605,-1.23 133.57,-1.2599999999999998 136.06,-1.2650000000000001 137.18,-1.27 139.485,-1.32 147.665,-1.27 151.06,-1.2600000000000002 152.03500000000003,-1.27 155.76,-1.28 156.735,-1.29 157.585,-1.29 160.305,-1.3199999999999998 161.28,-1.345 164.835,-1.39 165.79500000000002,-1.4100000000000001 169.51,-1.45 170.48000000000002,-1.475 174.19,-1.4949999999999999 175.16,-1.525 178.95,-1.585" speed="36.11111111111111" width="3.6801222805771"/>
		<lane allow="pedestrian rail private passenger ship delivery vip emergency bicycle rail_electric army rail_urban trailer coach custom2 tram taxi evehicle custom1 motorcycle authority hov moped" index="1" length="212.34820475233698" shape="-33.355000000000004,4.075 -32.56,4.075 -30.44,4.045 -29.475,4.01 -28.615000000000002,3.99 -26.225,4.045 -25.365000000000002,4.045 -25.225,4.05 -24.445,4.055 -24.205,4.050000000000001 -21.375,3.9749999999999996 -21.355,3.98 -20.4,3.945 -20.275,3.945 -16.865000000000002,3.9050000000000002 -15.95,3.885 -15.86,3.88 -12.344999999999999,3.87 -11.445,3.8449999999999998 -11.370000000000001,3.8499999999999996 -10.74,3.8499999999999996 -7.695,3.78 -6.824999999999999,3.755 -6.789999999999999,3.75 1.3,3.7449999999999997 2.2,3.74 2.325,3.74 3.52,3.745 3.61,3.74 5.845,3.6999999999999997 6.8149999999999995,3.665 7.5,3.66 10.325,3.665 11.2,3.6550000000000002 11.27,3.6500000000000004 15.04,3.615 15.96,3.5999999999999996 16.035,3.6 18.18,3.57 19.675,3.5300000000000002 20.65,3.495 22.189999999999998,3.4749999999999996 24.28,3.485 25.14,3.4699999999999998 25.23,3.4699999999999998 28.715,3.4499999999999997 29.61,3.44 29.695,3.44 32.765,3.425 32.8,3.4299999999999997 33.32,3.425 34.295,3.4099999999999997 36.83,3.44 37.995,3.4450000000000003 38.894999999999996,3.43 42.375,3.345 42.445,3.345 43.385,3.33 43.47,3.325 46.995,3.31 47.185,3.305 47.870000000000005,3.29 47.945,3.295 51.254999999999995,3.2649999999999997 51.69499999999999,3.26 52.665000000000006,3.2350000000000003 55.980000000000004,3.21 56.91,3.1849999999999996 56.959999999999994,3.185 60.635000000000005,3.13 61.6,3.105 62.849999999999994,3.125 65.1,3.145 65.97999999999999,3.1300000000000003 66.6,3.12 69.595,3.075 70.58,3.055 70.685,3.06 74.3,3.06 75.17,3.05 75.285,3.05 77.16,3.05 78.805,3.05 79.685,3.035 79.795,3.04 81.125,3.035 83.35499999999999,3.0250000000000004 84.32499999999999,3.005 90.285,2.9450000000000003 91.255,2.9250000000000003 91.36,2.92 95.00999999999999,2.94 95.16,2.935 95.76,2.9299999999999997 95.905,2.925 99.685,2.975 100.115,2.98 100.235,2.9699999999999998 100.65,2.9699999999999998 100.745,2.9699999999999998 104.28,2.94 104.535,2.935 105.5,2.91 109.035,2.875 110.00999999999999,2.85 111.505,2.845 113.78,2.8449999999999998 114.66499999999999,2.83 114.74000000000001,2.825 115.435,2.8200000000000003 118.45500000000001,2.785 119.38499999999999,2.755 119.43,2.755 123.26,2.685 124.19,2.665 124.245,2.665 127.555,2.615 127.99000000000001,2.6100000000000003 128.89999999999998,2.595 128.99,2.595 131.53,2.58 132.64499999999998,2.575 133.515,2.56 133.64499999999998,2.565 137.305,2.585 138.18,2.5650000000000004 138.245,2.5700000000000003 141.685,2.525 141.87,2.5199999999999996 142.805,2.51 142.935,2.51 145.78,2.525 146.70999999999998,2.5250000000000004 147.615,2.51 147.70499999999998,2.51 151.075,2.4899999999999998 151.985,2.4699999999999998 152.05,2.465 155.775,2.4250000000000003 155.98000000000002,2.42 156.64999999999998,2.41 156.735,2.41 160.055,2.4 160.375,2.4 161.3,2.37 161.365,2.365 164.89499999999998,2.325 165.865,2.305 169.58,2.2699999999999996 170.55,2.24 170.925,2.24 174.24,2.245 174.735,2.2350000000000003 175.12,2.23 175.19,2.23 179.02,2.185 179.02,2.185" speed="36.11111111111111" width="3.4500579705274523"/>
		<lane allow="pedestrian rail private passenger ship delivery vip emergency bicycle rail_electric army rail_urban trailer coach custom2 tram taxi evehicle custom1 motorcycle authority hov moped" index="2" length="212.34820475233698" shape="-33.325,7.535 -32.515,7.51 -31.310000000000002,7.470000000000001 -28.795,7.425 -28.585,7.43 -24.225,7.53 -20.85,7.475 -20.7,7.470000000000001 -20.2,7.455 -20.125,7.45 -16.675,7.37 -10.78,7.3549999999999995 -6.9399999999999995,7.290000000000001 -6.785,7.290000000000001 -5.945,7.290000000000001 -5.84,7.279999999999999 -1.97,7.23 3.52,7.265000000000001 7.335,7.1899999999999995 7.46,7.1850000000000005 8.795,7.18 12.76,7.095000000000001 18.17,7.1 22.0,7.035 22.145,7.045 23.605,7.04 23.69,7.04 27.58,6.96 32.845,6.915 36.81,6.87 38.305,6.84 42.265,6.82 47.32,6.78 51.295,6.76 52.765,6.74 56.730000000000004,6.6850000000000005 62.769999999999996,6.6 62.81,6.6 66.765,6.57 67.55,6.57 71.515,6.565 77.16499999999999,6.56 81.125,6.545 91.295,6.43 91.34,6.4350000000000005 95.31,6.415000000000001 97.315,6.43 100.35,6.455 101.235,6.449999999999999 104.33500000000001,6.414999999999999 111.525,6.265000000000001 111.58500000000001,6.265 115.465,6.24 115.49000000000001,6.24 126.0,6.055 127.545,6.04 127.59,6.03 129.98000000000002,6.02 131.445,6.029999999999999 141.35000000000002,6.09 141.415,6.09 141.785,6.09 145.37,6.0649999999999995 145.81,6.0600000000000005 155.64,5.835 156.085,5.825 156.11,5.83 159.61,5.8100000000000005 160.09,5.805 170.54500000000002,5.615 170.875,5.605 170.915,5.61 174.525,5.585 174.82,5.59 179.085,5.585" speed="36.11111111111111" width="3.2201397485202397"/>
		<lane allow="pedestrian rail private passenger ship delivery vip emergency bicycle rail_electric army rail_urban trailer coach custom2 tram taxi evehicle custom1 motorcycle authority truck hov moped" index="3" length="212.34820475233698" shape="-33.3,10.870000000000001 -31.32,10.815000000000001 -31.185000000000002,10.82 -27.384999999999998,10.815 -23.42,10.745000000000001 -20.630000000000003,10.77 -16.835,10.71 -16.675,10.705 -12.725000000000001,10.73 -8.765,10.66 -5.9350000000000005,10.65 -2.075,10.555 -1.96,10.555 2.1,10.54 6.06,10.46 8.73,10.485 12.545,10.445 12.715,10.445 16.814999999999998,10.485 20.775,10.42 23.625,10.42 27.475,10.33 27.564999999999998,10.33 31.805,10.275 35.769999999999996,10.16 38.269999999999996,10.14 38.32,10.135 42.275000000000006,10.120000000000001 46.53,10.105 46.55,10.100000000000001 50.510000000000005,10.08 52.875,10.05 56.84,10.01 61.105000000000004,9.95 65.065,9.915 67.58,9.875 71.53999999999999,9.835 76.065,9.774999999999999 80.035,9.76 90.685,9.74 90.705,9.735 94.655,9.72 97.265,9.72 101.22,9.71 105.60499999999999,9.675 105.655,9.67 109.595,9.620000000000001 109.63499999999999,9.620000000000001 111.61500000000001,9.59 115.58500000000001,9.545 120.28999999999999,9.47 124.21000000000001,9.425 124.25999999999999,9.42 126.07,9.385 130.025,9.33 134.64499999999998,9.315 138.60500000000002,9.33 141.425,9.344999999999999 145.375,9.33 150.125,9.24 154.095,9.17 155.565,9.14 155.66500000000002,9.14 159.62,9.120000000000001 164.585,9.065 168.56,9.015 168.595,9.01 170.595,8.985 174.555,8.945 179.14499999999998,8.925" speed="36.11111111111111" width="3.0500163933985656"/>
		<lane allow="pedestrian rail private passenger ship delivery vip emergency bicycle rail_electric army rail_urban trailer coach custom2 tram taxi evehicle custom1 motorcycle authority hov moped" index="4" length="212.34820475233698" shape="-33.275,14.24 -27.585,14.24 -27.33,14.23 -23.674999999999997,14.08 -23.595,14.075 -23.425,14.08 -12.73,14.120000000000001 -12.504999999999999,14.115 -8.705,13.965 -8.49,13.96 2.07,13.965 2.17,13.96 5.965,13.805 16.825,13.84 16.985,13.835 20.835,13.68 21.0,13.67 31.744999999999997,13.685 31.905,13.68 35.65,13.525 46.2,13.48 46.57,13.475000000000001 50.155,13.45 50.535,13.45 60.915,13.315 61.08,13.309999999999999 61.125,13.309999999999999 64.94,13.29 65.11500000000001,13.285 75.975,13.085 76.015,13.085 76.08,13.085 79.965,13.059999999999999 80.05000000000001,13.065000000000001 90.71000000000001,13.030000000000001 90.9,13.030000000000001 94.675,13.004999999999999 94.875,13.004999999999999 105.58500000000001,12.995000000000001 105.725,12.995000000000001 109.535,12.975000000000001 109.70500000000001,12.969999999999999 120.35,12.805 124.30000000000001,12.785 134.59,12.620000000000001 134.635,12.625 134.92000000000002,12.620000000000001 138.59,12.595 138.89,12.600000000000001 149.935,12.61 149.95999999999998,12.605 150.29000000000002,12.605 153.92000000000002,12.585 154.28500000000003,12.58 164.495,12.425 164.68,12.425 168.45,12.405 168.64,12.399999999999999 179.20499999999998,12.3" speed="36.11111111111111" width="3.2600613491159964"/>
		<lane allow="pedestrian rail private passenger ship delivery vip emergency bicycle rail_electric army rail_urban trailer coach custom2 tram taxi evehicle custom1 motorcycle authority hov moped" index="5" length="212.34820475233698" shape="-33.245,17.64 -27.58,17.700000000000003 -27.275,17.695 -27.11,17.685 -23.54,17.55 -23.07,17.54 -12.434999999999999,17.54 -12.11,17.54 -11.969999999999999,17.535 -8.405000000000001,17.395 -7.92,17.39 2.075,17.490000000000002 2.38,17.485 2.545,17.48 6.109999999999999,17.335 6.5649999999999995,17.325 17.07,17.22 17.415,17.21 17.52,17.205 21.08,17.055 21.555,17.055 31.740000000000002,17.125 32.055,17.125 32.22,17.115 35.785,16.97 36.235,16.965 46.21,16.89 46.730000000000004,16.884999999999998 50.175,16.865 50.68,16.865 61.005,16.785 61.515,16.775 64.96000000000001,16.755 65.41499999999999,16.75 65.455,16.755 76.045,16.564999999999998 76.53999999999999,16.555 79.97999999999999,16.535 80.5,16.535 90.92,16.47 91.44,16.465 94.88,16.445 95.4,16.445 105.59,16.395 106.11,16.395 109.555,16.375 110.02,16.365 110.055,16.365 120.42,16.205 120.91,16.189999999999998 124.35499999999999,16.17 124.855,16.17 124.865,16.17 134.95499999999998,16.075 135.45999999999998,16.07 138.905,16.05 139.44,16.055 149.95999999999998,16.105 150.45999999999998,16.095 150.49,16.105 153.94,16.085 154.35500000000002,16.08 154.42000000000002,16.075 164.54000000000002,15.815 165.025,15.809999999999999 168.47,15.79 168.99,15.785 179.275,15.725" speed="36.11111111111111" width="3.470057636408939"/>
	</edge>
	<edge from="3" function="normal" id="7" length="78.757265242806" numLanes="5" priority="1" speed="36.11111111111111" spreadType="center" to="4">
		<lane allow="pedestrian rail private passenger ship delivery vip emergency bicycle rail_electric army rail_urban trailer coach bus custom2 tram taxi evehicle custom1 motorcycle authority truck hov moped" index="0" length="78.757265242806" shape="179.02,2.185 185.26999999999998,2.135 189.23000000000002,2.115 189.25,2.105 200.05,2.0 204.015,1.97 214.61,1.8399999999999999 216.325,1.8299999999999998 218.55,1.805 229.26,1.7149999999999999 233.225,1.68 235.315,1.6600000000000001 235.335,1.655 243.82999999999998,1.61 247.79500000000002,1.595 251.98000000000002,1.565 257.815,1.5150000000000001" speed="36.11111111111111" width="3.5002285639655017"/>
		<lane allow="pedestrian rail private passenger ship delivery vip emergency bicycle rail_electric army rail_urban trailer coach custom2 tram taxi evehicle custom1 motorcycle authority hov moped" index="1" length="78.757265242806" shape="179.085,5.585 185.255,5.585 185.41,5.585 185.44,5.585 189.26999999999998,5.5649999999999995 189.385,5.5649999999999995 200.015,5.47 200.06,5.465 200.07999999999998,5.47 203.995,5.445 204.04500000000002,5.445 214.635,5.3149999999999995 214.64999999999998,5.32 214.76999999999998,5.315 218.60000000000002,5.29 218.73000000000002,5.285 229.325,5.2299999999999995 229.79500000000002,5.2299999999999995 233.29000000000002,5.21 233.755,5.2 243.865,5.095 243.99,5.09 247.805,5.07 247.94,5.065 257.87,5.1" speed="36.11111111111111" width="3.2907445965920847"/>
		<lane allow="pedestrian rail private passenger ship delivery vip emergency bicycle rail_electric army rail_urban trailer coach custom2 tram taxi evehicle custom1 motorcycle authority hov moped" index="2" length="78.757265242806" shape="179.14499999999998,8.925 179.54000000000002,8.93 183.505,8.925 185.495,8.905 189.45999999999998,8.84 194.325,8.75 198.27499999999998,8.725 199.95499999999998,8.73 203.925,8.74 208.805,8.745000000000001 208.87,8.735 212.83499999999998,8.709999999999999 214.81,8.68 218.77,8.635 224.01999999999998,8.575 227.97,8.55 229.805,8.545 233.775,8.515 238.235,8.475 242.20499999999998,8.435 243.965,8.415 244.0,8.415 247.965,8.4 253.39999999999998,8.425 257.36,8.44 257.92499999999995,8.45" speed="36.11111111111111" width="3.080146100430951"/>
		<lane allow="pedestrian rail private passenger ship delivery vip emergency bicycle rail_electric army rail_urban trailer coach custom2 tram taxi evehicle custom1 motorcycle authority hov moped" index="3" length="78.757265242806" shape="179.20499999999998,12.3 179.51999999999998,12.295 179.54000000000002,12.305 179.67000000000002,12.3 183.5,12.280000000000001 194.05,12.025 194.26999999999998,12.015 194.34500000000003,12.02 198.07,12.0 198.255,12.0 198.3,12.0 208.885,12.08 209.04000000000002,12.08 209.085,12.08 212.86,12.059999999999999 212.98,12.065000000000001 213.01,12.059999999999999 223.775,11.915 224.0,11.91 224.04000000000002,11.91 227.785,11.885 228.015,11.885 238.325,11.78 238.61,11.774999999999999 242.27499999999998,11.754999999999999 242.575,11.754999999999999 253.31,11.775 253.335,11.775 253.375,11.775 257.31,11.75 257.365,11.745000000000001 257.975,11.745000000000001" speed="36.11111111111111" width="3.3203764846776034"/>
		<lane allow="pedestrian rail private passenger ship delivery vip emergency bicycle rail_electric army rail_urban trailer coach custom2 tram taxi evehicle custom1 motorcycle authority hov moped" index="4" length="78.757265242806" shape="179.275,15.725 179.695,15.725 180.20999999999998,15.725 183.66,15.705 184.095,15.7 184.15,15.695 194.155,15.485 194.64999999999998,15.485 198.09,15.465 198.625,15.46 209.085,15.51 209.57999999999998,15.504999999999999 209.62,15.504999999999999 213.06,15.49 213.56,15.485 213.57,15.485 223.84500000000003,15.379999999999999 224.36,15.375 227.8,15.355 228.265,15.355 228.3,15.344999999999999 238.65,15.184999999999999 239.14999999999998,15.175 242.59500000000003,15.16 243.13,15.165 253.34,15.24 253.84,15.235 253.88,15.239999999999998 257.325,15.219999999999999 257.78999999999996,15.215 257.82500000000005,15.21 258.025,15.21" speed="36.11111111111111" width="3.480014367786431"/>
	</edge>
	<edge from="3" function="normal" id="29" length="78.94129249613334" numLanes="1" priority="1" speed="36.11111111111111" spreadType="center" to="5">
		<lane allow="pedestrian rail private passenger ship delivery vip emergency bicycle rail_electric army rail_urban trailer coach bus custom2 tram taxi evehicle custom1 motorcycle authority truck hov moped" index="0" length="78.94129249613334" shape="178.95,-1.585 186.22,-1.76 203.8,-2.31 213.66500000000002,-2.82 216.10000000000002,-3.015 236.97,-4.725 247.355,-5.66 257.69500000000005,-6.705" speed="36.11111111111111" width="3.9618177646126034"/>
	</edge>
</edges>
