<!-- generated on 2020-12-18 15:42:48.747590 by ipykernel_launcher.py v1_2_0+5214-53edc58fcd
-->
<nodes>
	<node id="1" type="from" x="-45.33833333333333" y="9.254166666666665"/>
	<node id="2" type="to" x="-33.31333333333334" y="9.114166666666668"/>
	<node id="3" type="to" x="179.11333333333334" y="7.189166666666668"/>
	<node id="4" type="to" x="257.922" y="8.404"/>
	<node id="5" type="to" x="257.69500000000005" y="-6.705"/>
</nodes>
