<?xml version="1.0" encoding="UTF-8"?>

<!-- generated on Fri Dec 18 15:42:48 2020 by Eclipse SUMO netconvert Version 1.8.0
<configuration xmlns:xsi="http://www.w3.org/2001/XMLSchema-instance" xsi:noNamespaceSchemaLocation="http://sumo.dlr.de/xsd/netconvertConfiguration.xsd">

    <input>
        <node-files value="./converted_scenarios/hand-crafted/USA_US101-33_1_I-1-1/nodes.net.xml"/>
        <edge-files value="./converted_scenarios/hand-crafted/USA_US101-33_1_I-1-1/edges.net.xml"/>
        <connection-files value="./converted_scenarios/hand-crafted/USA_US101-33_1_I-1-1/_connections.net.xml"/>
        <tllogic-files value="./converted_scenarios/hand-crafted/USA_US101-33_1_I-1-1/_tll.net.xml"/>
    </input>

    <output>
        <output-file value="./converted_scenarios/hand-crafted/USA_US101-33_1_I-1-1/USA_US101-33_1_I-1-1.net.xml"/>
    </output>

    <processing>
        <plain.extend-edge-shape value="true"/>
        <geometry.remove.keep-edges.explicit value="true"/>
        <geometry.avoid-overlap value="true"/>
        <offset.disable-normalization value="true"/>
    </processing>

    <junctions>
        <no-turnarounds value="true"/>
        <junctions.internal-link-detail value="20"/>
    </junctions>

    <report>
        <aggregate-warnings value="5"/>
    </report>

    <random_number>
        <seed value="1234"/>
    </random_number>

</configuration>
-->

<net version="1.6" junctionCornerDetail="5" junctionLinkDetail="20" limitTurnSpeed="5.50" xmlns:xsi="http://www.w3.org/2001/XMLSchema-instance" xsi:noNamespaceSchemaLocation="http://sumo.dlr.de/xsd/net_file.xsd">

    <location netOffset="0.00,0.00" convBoundary="-45.34,-6.71,257.92,9.25" origBoundary="-45.41,-6.71,258.02,17.79" projParameter="!"/>

    <edge id=":2_0" function="internal">
        <lane id=":2_0_0" index="0" disallow="bus truck rail_fast" speed="36.11" length="3.23" width="3.68" shape="-35.03,0.34 -31.80,0.33"/>
        <lane id=":2_0_1" index="1" disallow="bus truck rail_fast" speed="36.11" length="3.23" width="3.45" shape="-35.01,4.08 -31.78,4.06"/>
        <lane id=":2_0_2" index="2" disallow="bus truck rail_fast" speed="36.11" length="3.23" width="3.22" shape="-34.99,7.57 -31.76,7.48"/>
        <lane id=":2_0_3" index="3" disallow="bus rail_fast" speed="36.11" length="3.23" width="3.05" shape="-34.96,10.92 -31.74,10.83"/>
        <lane id=":2_0_4" index="4" disallow="bus truck rail_fast" speed="36.11" length="3.23" width="3.26" shape="-34.94,14.24 -31.72,14.24"/>
        <lane id=":2_0_5" index="5" disallow="bus truck rail_fast" speed="36.11" length="3.23" width="3.47" shape="-34.92,17.63 -31.70,17.66"/>
    </edge>
    <edge id=":3_0" function="internal">
        <lane id=":3_0_0" index="0" disallow="bus truck rail_fast" speed="36.11" length="13.63" width="3.96" shape="164.35,-1.38 177.98,-1.56"/>
    </edge>
    <edge id=":3_1" function="internal">
        <lane id=":3_1_0" index="0" disallow="bus truck rail_fast" speed="36.11" length="13.63" width="3.50" shape="164.42,2.33 178.06,2.19"/>
        <lane id=":3_1_1" index="1" disallow="bus truck rail_fast" speed="36.11" length="13.63" width="3.29" shape="164.48,5.73 178.11,5.58"/>
        <lane id=":3_1_2" index="2" disallow="bus truck rail_fast" speed="36.11" length="13.63" width="3.08" shape="164.54,9.07 178.16,8.91"/>
        <lane id=":3_1_3" index="3" disallow="bus truck rail_fast" speed="36.11" length="13.63" width="3.32" shape="164.59,12.43 178.22,12.32"/>
        <lane id=":3_1_4" index="4" disallow="bus truck rail_fast" speed="36.11" length="13.63" width="3.48" shape="164.65,15.81 178.27,15.72"/>
    </edge>

    <edge id="124" from="2" to="3" priority="1" spreadType="center" length="212.35">
        <lane id="124_0" index="0" disallow="bus truck rail_fast" speed="36.11" length="212.35" width="3.68" customShape="1" shape="-31.80,0.33 -30.53,0.33 -29.56,0.31 -26.03,0.29 -25.06,0.28 -21.46,0.23 -20.49,0.21 -16.88,0.17 -15.91,0.16 -12.38,0.14 -11.41,0.12 -10.43,0.12 -7.79,0.10 -6.81,0.08 -3.24,0.04 -2.26,0.02 1.38,0.00 2.35,-0.02 5.75,-0.03 6.72,-0.05 10.30,-0.05 11.27,-0.06 15.06,-0.11 16.03,-0.13 19.58,-0.18 20.56,-0.21 24.27,-0.21 25.24,-0.23 28.73,-0.26 29.70,-0.28 33.30,-0.31 34.16,-0.33 34.27,-0.33 37.97,-0.29 38.94,-0.31 42.47,-0.39 43.42,-0.41 46.97,-0.42 47.94,-0.43 51.64,-0.47 52.62,-0.49 55.92,-0.50 56.90,-0.51 60.59,-0.54 61.55,-0.57 65.08,-0.52 66.04,-0.54 69.72,-0.62 70.69,-0.63 71.56,-0.64 74.31,-0.64 75.28,-0.66 78.78,-0.67 79.75,-0.69 83.31,-0.69 84.28,-0.71 90.23,-0.74 91.20,-0.75 94.98,-0.75 95.95,-0.77 99.75,-0.77 100.73,-0.79 104.48,-0.82 105.45,-0.83 108.98,-0.85 109.96,-0.87 113.36,-0.87 113.66,-0.88 114.63,-0.91 115.30,-0.95 118.39,-0.99 119.36,-1.02 123.19,-1.08 124.16,-1.10 127.97,-1.17 128.94,-1.19 132.60,-1.23 133.57,-1.26 136.06,-1.27 137.18,-1.27 139.49,-1.32 147.66,-1.27 151.06,-1.26 152.04,-1.27 155.76,-1.28 156.74,-1.29 157.59,-1.29 160.31,-1.32 161.28,-1.34 164.35,-1.38"/>
        <lane id="124_1" index="1" disallow="bus truck rail_fast" speed="36.11" length="212.35" width="3.45" customShape="1" shape="-31.78,4.06 -30.44,4.04 -29.48,4.01 -28.62,3.99 -26.23,4.04 -25.37,4.04 -25.23,4.05 -24.45,4.05 -24.20,4.05 -21.38,3.97 -20.40,3.94 -20.27,3.94 -16.87,3.91 -15.95,3.88 -12.34,3.87 -11.45,3.84 -10.74,3.85 -7.70,3.78 -6.82,3.75 1.30,3.74 2.20,3.74 2.33,3.74 3.52,3.75 5.84,3.70 6.81,3.67 7.50,3.66 10.32,3.67 11.20,3.66 15.04,3.62 15.96,3.60 18.18,3.57 19.68,3.53 20.65,3.50 22.19,3.47 24.28,3.48 25.14,3.47 28.71,3.45 29.61,3.44 32.77,3.42 33.32,3.42 34.30,3.41 36.83,3.44 37.99,3.45 38.89,3.43 42.38,3.35 43.38,3.33 46.99,3.31 47.19,3.31 47.87,3.29 51.25,3.26 51.69,3.26 52.67,3.24 55.98,3.21 56.91,3.18 60.64,3.13 61.60,3.10 62.85,3.12 65.10,3.15 65.98,3.13 66.60,3.12 69.59,3.08 70.58,3.06 70.69,3.06 74.30,3.06 75.17,3.05 75.28,3.05 77.16,3.05 78.81,3.05 79.69,3.04 79.80,3.04 81.12,3.04 83.35,3.03 84.32,3.00 90.28,2.95 91.25,2.93 91.36,2.92 95.01,2.94 95.16,2.94 95.76,2.93 95.91,2.92 99.69,2.98 100.11,2.98 100.23,2.97 100.65,2.97 104.28,2.94 104.53,2.94 105.50,2.91 109.03,2.88 110.01,2.85 111.50,2.85 113.78,2.84 114.66,2.83 115.44,2.82 118.46,2.79 119.38,2.75 123.26,2.69 124.19,2.67 127.56,2.62 127.99,2.61 128.90,2.60 131.53,2.58 132.64,2.58 133.51,2.56 133.64,2.56 137.31,2.58 138.18,2.57 141.69,2.52 141.87,2.52 142.81,2.51 142.94,2.51 145.78,2.52 146.71,2.53 147.62,2.51 151.07,2.49 151.99,2.47 155.78,2.43 155.98,2.42 156.65,2.41 160.06,2.40 160.38,2.40 161.30,2.37 164.42,2.33"/>
        <lane id="124_2" index="2" disallow="bus truck rail_fast" speed="36.11" length="212.35" width="3.22" customShape="1" shape="-31.76,7.48 -31.31,7.47 -28.80,7.42 -28.59,7.43 -24.23,7.53 -20.85,7.47 -20.70,7.47 -20.20,7.46 -16.68,7.37 -10.78,7.35 -6.94,7.29 -6.79,7.29 -5.95,7.29 -5.84,7.28 -1.97,7.23 3.52,7.27 7.33,7.19 7.46,7.19 8.79,7.18 12.76,7.10 18.17,7.10 22.00,7.04 22.14,7.04 23.61,7.04 27.58,6.96 32.84,6.92 36.81,6.87 38.30,6.84 42.27,6.82 47.32,6.78 51.30,6.76 52.77,6.74 56.73,6.69 62.77,6.60 66.77,6.57 67.55,6.57 71.52,6.57 77.16,6.56 81.12,6.54 91.30,6.43 95.31,6.42 97.31,6.43 100.35,6.46 101.23,6.45 104.34,6.41 111.53,6.27 115.47,6.24 126.00,6.05 127.55,6.04 129.98,6.02 131.44,6.03 141.35,6.09 141.78,6.09 145.37,6.06 145.81,6.06 155.64,5.83 156.09,5.83 159.61,5.81 160.09,5.80 164.48,5.73"/>
        <lane id="124_3" index="3" disallow="bus rail_fast" speed="36.11" length="212.35" width="3.05" customShape="1" shape="-31.74,10.83 -31.32,10.82 -31.19,10.82 -27.38,10.81 -23.42,10.75 -20.63,10.77 -16.84,10.71 -16.68,10.71 -12.73,10.73 -8.77,10.66 -5.94,10.65 -2.08,10.55 -1.96,10.55 2.10,10.54 6.06,10.46 8.73,10.48 12.54,10.45 12.71,10.45 16.81,10.48 20.77,10.42 23.62,10.42 27.48,10.33 31.80,10.28 35.77,10.16 38.27,10.14 42.28,10.12 46.53,10.11 50.51,10.08 52.88,10.05 56.84,10.01 61.11,9.95 65.06,9.91 67.58,9.88 71.54,9.84 76.06,9.77 80.03,9.76 90.69,9.74 94.66,9.72 97.27,9.72 101.22,9.71 105.60,9.68 109.59,9.62 111.62,9.59 115.59,9.54 120.29,9.47 124.21,9.43 126.07,9.38 130.03,9.33 134.64,9.31 138.61,9.33 141.43,9.34 145.38,9.33 150.12,9.24 154.09,9.17 155.56,9.14 155.67,9.14 159.62,9.12 164.54,9.07"/>
        <lane id="124_4" index="4" disallow="bus truck rail_fast" speed="36.11" length="212.35" width="3.26" customShape="1" shape="-31.72,14.24 -27.59,14.24 -27.33,14.23 -23.67,14.08 -23.43,14.08 -12.73,14.12 -12.50,14.12 -8.71,13.96 -8.49,13.96 2.07,13.96 2.17,13.96 5.96,13.80 16.82,13.84 16.98,13.84 20.84,13.68 21.00,13.67 31.74,13.69 31.91,13.68 35.65,13.53 46.20,13.48 46.57,13.48 50.16,13.45 50.53,13.45 60.91,13.31 61.08,13.31 64.94,13.29 65.12,13.29 75.97,13.09 76.08,13.09 79.97,13.06 90.71,13.03 90.90,13.03 94.67,13.00 94.88,13.00 105.59,13.00 105.72,13.00 109.53,12.98 109.71,12.97 120.35,12.80 124.30,12.79 134.59,12.62 134.92,12.62 138.59,12.60 138.89,12.60 149.94,12.61 150.29,12.61 153.92,12.59 154.29,12.58 164.59,12.43"/>
        <lane id="124_5" index="5" disallow="bus truck rail_fast" speed="36.11" length="212.35" width="3.47" customShape="1" shape="-31.70,17.66 -27.58,17.70 -27.27,17.70 -27.11,17.68 -23.54,17.55 -23.07,17.54 -12.43,17.54 -12.11,17.54 -11.97,17.54 -8.41,17.39 -7.92,17.39 2.08,17.49 2.38,17.48 2.54,17.48 6.11,17.34 6.56,17.32 17.07,17.22 17.41,17.21 17.52,17.20 21.08,17.05 21.55,17.05 31.74,17.12 32.05,17.12 32.22,17.11 35.78,16.97 36.23,16.96 46.21,16.89 46.73,16.88 50.17,16.86 50.68,16.86 61.01,16.79 61.52,16.77 64.96,16.75 65.41,16.75 76.05,16.56 76.54,16.55 79.98,16.54 80.50,16.54 90.92,16.47 91.44,16.46 94.88,16.45 95.40,16.45 105.59,16.39 106.11,16.39 109.56,16.38 110.02,16.36 120.42,16.20 120.91,16.19 124.35,16.17 124.86,16.17 134.95,16.07 135.46,16.07 138.91,16.05 139.44,16.05 149.96,16.11 150.46,16.09 153.94,16.09 154.36,16.08 164.54,15.81 164.65,15.81"/>
    </edge>
    <edge id="29" from="3" to="5" priority="1" spreadType="center" length="78.94">
        <lane id="29_0" index="0" disallow="rail_fast" speed="36.11" length="78.94" width="3.96" customShape="1" shape="177.98,-1.56 186.22,-1.76 203.80,-2.31 213.67,-2.82 216.10,-3.02 236.97,-4.72 247.35,-5.66 257.70,-6.71"/>
    </edge>
    <edge id="6" from="1" to="2" priority="1" spreadType="center" length="12.02">
        <lane id="6_0" index="0" disallow="rail_fast" speed="36.11" length="12.02" width="3.80" customShape="1" shape="-45.41,0.41 -41.26,0.38 -35.03,0.34"/>
        <lane id="6_1" index="1" disallow="bus truck rail_fast" speed="36.11" length="12.02" width="3.64" customShape="1" shape="-45.38,4.17 -43.28,4.12 -41.24,4.12 -35.01,4.08"/>
        <lane id="6_2" index="2" disallow="bus rail_fast" speed="36.11" length="12.02" width="3.25" customShape="1" shape="-45.36,7.69 -43.31,7.63 -35.20,7.58 -34.99,7.57"/>
        <lane id="6_3" index="3" disallow="rail_fast" speed="36.11" length="12.02" width="3.37" customShape="1" shape="-45.33,11.05 -42.38,11.05 -38.43,10.96 -35.18,10.93 -34.96,10.92"/>
        <lane id="6_4" index="4" disallow="bus rail_fast" speed="36.11" length="12.02" width="3.21" customShape="1" shape="-45.30,14.41 -42.36,14.41 -42.24,14.41 -38.35,14.25 -38.19,14.25 -34.94,14.24"/>
        <lane id="6_5" index="5" disallow="rail_fast" speed="36.11" length="12.02" width="3.47" customShape="1" shape="-45.27,17.79 -42.12,17.76 -41.72,17.75 -38.10,17.61 -37.62,17.61 -34.92,17.63"/>
    </edge>
    <edge id="7" from="3" to="4" priority="1" spreadType="center" length="78.76">
        <lane id="7_0" index="0" disallow="rail_fast" speed="36.11" length="78.76" width="3.50" customShape="1" shape="178.06,2.19 185.27,2.13 189.23,2.12 200.05,2.00 204.01,1.97 214.61,1.84 216.32,1.83 218.55,1.80 229.26,1.71 233.22,1.68 235.31,1.66 243.83,1.61 247.80,1.59 251.98,1.56 257.86,1.51"/>
        <lane id="7_1" index="1" disallow="bus truck rail_fast" speed="36.11" length="78.76" width="3.29" customShape="1" shape="178.11,5.58 185.25,5.58 185.41,5.58 189.27,5.56 189.38,5.56 200.01,5.47 204.00,5.45 214.63,5.31 214.77,5.32 218.60,5.29 218.73,5.29 229.32,5.23 229.80,5.23 233.29,5.21 233.75,5.20 243.87,5.09 243.99,5.09 247.81,5.07 247.94,5.07 257.89,5.10"/>
        <lane id="7_2" index="2" disallow="bus truck rail_fast" speed="36.11" length="78.76" width="3.08" customShape="1" shape="178.16,8.91 179.54,8.93 183.50,8.93 185.50,8.90 189.46,8.84 194.32,8.75 198.27,8.72 199.95,8.73 203.93,8.74 208.81,8.75 212.83,8.71 214.81,8.68 218.77,8.63 224.02,8.57 227.97,8.55 229.81,8.54 233.78,8.52 238.24,8.47 242.20,8.44 243.97,8.41 247.97,8.40 253.40,8.43 257.36,8.44 257.92,8.45"/>
        <lane id="7_3" index="3" disallow="bus truck rail_fast" speed="36.11" length="78.76" width="3.32" customShape="1" shape="178.22,12.32 179.52,12.29 179.67,12.30 183.50,12.28 194.05,12.03 194.27,12.02 198.07,12.00 198.25,12.00 208.88,12.08 209.04,12.08 212.86,12.06 212.98,12.07 223.78,11.91 224.00,11.91 227.78,11.88 228.01,11.88 238.32,11.78 238.61,11.77 242.27,11.75 242.57,11.75 253.31,11.78 257.31,11.75 257.98,11.75"/>
        <lane id="7_4" index="4" disallow="bus truck rail_fast" speed="36.11" length="78.76" width="3.48" customShape="1" shape="178.27,15.72 179.69,15.72 180.21,15.72 183.66,15.71 184.09,15.70 194.16,15.48 194.65,15.48 198.09,15.46 198.62,15.46 209.09,15.51 209.58,15.50 213.06,15.49 213.56,15.48 223.85,15.38 224.36,15.38 227.80,15.36 228.26,15.36 238.65,15.18 239.15,15.18 242.60,15.16 243.13,15.16 253.34,15.24 253.84,15.23 257.32,15.22 257.79,15.21 258.02,15.21"/>
    </edge>

    <junction id="1" type="dead_end" x="-45.34" y="9.25" incLanes="" intLanes="" shape="-45.26,19.52 -45.42,-1.49"/>
    <junction id="2" type="priority" x="-33.31" y="9.11" incLanes="6_0 6_1 6_2 6_3 6_4 6_5" intLanes=":2_0_0 :2_0_1 :2_0_2 :2_0_3 :2_0_4 :2_0_5" shape="-31.69,19.39 -31.81,-1.51 -35.05,-1.56 -34.91,19.36">
        <request index="0" response="000000" foes="000000" cont="0"/>
        <request index="1" response="000000" foes="000000" cont="0"/>
        <request index="2" response="000000" foes="000000" cont="0"/>
        <request index="3" response="000000" foes="000000" cont="0"/>
        <request index="4" response="000000" foes="000000" cont="0"/>
        <request index="5" response="000000" foes="000000" cont="0"/>
    </junction>
    <junction id="3" type="priority" x="179.11" y="7.19" incLanes="124_0 124_1 124_2 124_3 124_4 124_5" intLanes=":3_0_0 :3_1_0 :3_1_1 :3_1_2 :3_1_3 :3_1_4" shape="178.30,17.47 178.03,0.44 177.93,-3.54 164.32,-3.22 164.68,17.55">
        <request index="0" response="000000" foes="000000" cont="0"/>
        <request index="1" response="000000" foes="000000" cont="0"/>
        <request index="2" response="000000" foes="000000" cont="0"/>
        <request index="3" response="000000" foes="000000" cont="0"/>
        <request index="4" response="000000" foes="000000" cont="0"/>
        <request index="5" response="000000" foes="000000" cont="0"/>
    </junction>
    <junction id="4" type="dead_end" x="257.92" y="8.40" incLanes="7_0 7_1 7_2 7_3 7_4" intLanes="" shape="257.85,-0.24 258.00,16.95"/>
    <junction id="5" type="dead_end" x="257.70" y="-6.71" incLanes="29_0" intLanes="" shape="257.50,-8.68 257.89,-4.73"/>

    <connection from="124" to="29" fromLane="0" toLane="0" contPos="-4.00" via=":3_0_0" dir="R" state="M"/>
    <connection from="124" to="7" fromLane="1" toLane="0" contPos="-4.00" via=":3_1_0" dir="s" state="M"/>
    <connection from="124" to="7" fromLane="2" toLane="1" contPos="-4.00" via=":3_1_1" dir="s" state="M"/>
    <connection from="124" to="7" fromLane="3" toLane="2" contPos="-4.00" via=":3_1_2" dir="s" state="M"/>
    <connection from="124" to="7" fromLane="4" toLane="3" contPos="-4.00" via=":3_1_3" dir="s" state="M"/>
    <connection from="124" to="7" fromLane="5" toLane="4" contPos="-4.00" via=":3_1_4" dir="s" state="M"/>
    <connection from="6" to="124" fromLane="0" toLane="0" contPos="-4.00" via=":2_0_0" dir="s" state="M"/>
    <connection from="6" to="124" fromLane="1" toLane="1" contPos="-4.00" via=":2_0_1" dir="s" state="M"/>
    <connection from="6" to="124" fromLane="2" toLane="2" contPos="-4.00" via=":2_0_2" dir="s" state="M"/>
    <connection from="6" to="124" fromLane="3" toLane="3" contPos="-4.00" via=":2_0_3" dir="s" state="M"/>
    <connection from="6" to="124" fromLane="4" toLane="4" contPos="-4.00" via=":2_0_4" dir="s" state="M"/>
    <connection from="6" to="124" fromLane="5" toLane="5" contPos="-4.00" via=":2_0_5" dir="s" state="M"/>

    <connection from=":2_0" to="124" fromLane="0" toLane="0" dir="s" state="M"/>
    <connection from=":2_0" to="124" fromLane="1" toLane="1" dir="s" state="M"/>
    <connection from=":2_0" to="124" fromLane="2" toLane="2" dir="s" state="M"/>
    <connection from=":2_0" to="124" fromLane="3" toLane="3" dir="s" state="M"/>
    <connection from=":2_0" to="124" fromLane="4" toLane="4" dir="s" state="M"/>
    <connection from=":2_0" to="124" fromLane="5" toLane="5" dir="s" state="M"/>
    <connection from=":3_0" to="29" fromLane="0" toLane="0" dir="R" state="M"/>
    <connection from=":3_1" to="7" fromLane="0" toLane="0" dir="s" state="M"/>
    <connection from=":3_1" to="7" fromLane="1" toLane="1" dir="s" state="M"/>
    <connection from=":3_1" to="7" fromLane="2" toLane="2" dir="s" state="M"/>
    <connection from=":3_1" to="7" fromLane="3" toLane="3" dir="s" state="M"/>
    <connection from=":3_1" to="7" fromLane="4" toLane="4" dir="s" state="M"/>

</net>
