<routes>
	<vehicle depart="0.1" departLane="5" departPos="69.57773019466018" departSpeed="13.91" id="77" type="passenger">
		<route edges="124 7"/>
	</vehicle>
	<vehicle depart="0.1" departLane="4" departPos="23.175939509349618" departSpeed="15.26" id="78" type="passenger">
		<route edges="124 7"/>
	</vehicle>
	<vehicle depart="0.1" departLane="2" departPos="67.71959593316286" departSpeed="15.5" id="79" type="passenger">
		<route edges="124 7"/>
	</vehicle>
	<vehicle depart="0.1" departLane="1" departPos="27.7616607360279" departSpeed="15.06" id="82" type="passenger">
		<route edges="124 7"/>
	</vehicle>
	<vehicle depart="0.1" departLane="3" departPos="29.791092547817534" departSpeed="15.08" id="83" type="passenger">
		<route edges="124 7"/>
	</vehicle>
	<vehicle depart="0.1" departLane="4" departPos="31.21165086979919" departSpeed="15.25" id="84" type="passenger">
		<route edges="124 7"/>
	</vehicle>
	<vehicle depart="0.1" departLane="1" departPos="39.71575096918941" departSpeed="14.45" id="90" type="passenger">
		<route edges="124 124 29"/>
	</vehicle>
	<vehicle depart="0.1" departLane="2" departPos="53.45228006415473" departSpeed="15.5" id="91" type="passenger">
		<route edges="124 7"/>
	</vehicle>
	<vehicle depart="0.1" departLane="4" departPos="48.90434655773716" departSpeed="15.0" id="94" type="passenger">
		<route edges="124 7"/>
	</vehicle>
	<vehicle depart="0.1" departLane="5" departPos="56.1628201990277" departSpeed="15.89" id="95" type="passenger">
		<route edges="124 7"/>
	</vehicle>
	<vehicle depart="0.1" departLane="3" departPos="42.52758746412801" departSpeed="15.17" id="96" type="passenger">
		<route edges="124 7"/>
	</vehicle>
	<vehicle depart="0.1" departLane="2" departPos="45.57634513824739" departSpeed="13.53" id="99" type="passenger">
		<route edges="124 7"/>
	</vehicle>
	<vehicle depart="0.1" departLane="1" departPos="65.6262546559447" departSpeed="13.46" id="100" type="passenger">
		<route edges="124 7"/>
	</vehicle>
</routes>
