<!-- generated on 2020-12-18 15:41:18.789859 by ipykernel_launcher.py v1_2_0+5214-53edc58fcd
-->
<nodes>
	<node id="1" type="from" x="-130.85685" y="-36.64555"/>
	<node id="2" type="to" x="1.9432" y="-0.08365"/>
	<node id="3" type="from" x="1.342025" y="3.7668999999999997"/>
	<node id="4" type="to" x="-131.99405" y="-33.8894"/>
	<node id="5" type="from" x="28.47935" y="-3.2311500000000004"/>
	<node id="6" type="to" x="100.5052" y="-11.96695"/>
	<node id="7" type="from" x="100.3438" y="-8.283999999999999"/>
	<node id="8" type="to" x="29.44335" y="0.6503999999999999"/>
	<node id="9" type="from" x="18.538600000000002" y="11.656749999999999"/>
	<node id="10" type="to" x="-45.251850000000005" y="183.0082"/>
	<node id="11" type="from" x="-48.48165" y="181.12865"/>
	<node id="12" type="to" x="14.63675" y="11.517900000000001"/>
</nodes>
