<routes>
	<vehicle depart="0.1" departLane="0" departPos="13.110107884649166" departSpeed="10.251096" id="331" type="passenger">
		<route edges="301 263"/>
	</vehicle>
	<vehicle depart="0.1" departLane="0" departPos="22.426569846465263" departSpeed="15.385519" id="337" type="passenger">
		<route edges=":84_4 297 294 291"/>
	</vehicle>
</routes>
