<routes>
	<vehicle depart="0.1" departLane="0" departPos="69.86655835009842" departSpeed="6.8830008" id="312" type="bicycle">
		<route edges="8001 8099"/>
	</vehicle>
	<vehicle depart="0.1" departLane="0" departPos="52.28861409833344" departSpeed="11.913531" id="323" type="passenger">
		<route edges="8000 7997 7994"/>
	</vehicle>
	<vehicle depart="0.1" departLane="0" departPos="28.17700671281173" departSpeed="15.709479" id="329" type="passenger">
		<route edges="8000 8208"/>
	</vehicle>
	<vehicle depart="0.1" departLane="0" departPos="69.74002418296442" departSpeed="0.0" id="332" type="passenger">
		<route edges="8001 8095"/>
	</vehicle>
	<vehicle depart="0.1" departLane="0" departPos="52.239165918470206" departSpeed="3.5961534" id="341" type="passenger">
		<route edges="8001 8095"/>
	</vehicle>
	<vehicle depart="0.1" departLane="0" departPos="37.40855057699805" departSpeed="6.0071963" id="347" type="passenger">
		<route edges="8001 8095"/>
	</vehicle>
	<vehicle depart="0.1" departLane="0" departPos="16.8892234839852" departSpeed="9.4247123" id="351" type="passenger">
		<route edges="8001 8095"/>
	</vehicle>
	<vehicle depart="0.1" departLane="0" departPos="17.122350639067623" departSpeed="11.077976" id="355" type="passenger">
		<route edges=":43_4 8001 8095"/>
	</vehicle>
	<vehicle depart="0.1" departLane="0" departPos="10.466923345074946" departSpeed="16.389312" id="331" type="motorcycle">
		<route edges=":42_2 8000 7997"/>
	</vehicle>
	<vehicle depart="0.1" departLane="0" departPos="61.53995144940314" departSpeed="0.73054128" id="335" type="motorcycle">
		<route edges="8001 8095"/>
	</vehicle>
</routes>
