<routes>
	<vehicle depart="0.1" departLane="0" departPos="71.74119424119823" departSpeed="5.618622" id="1" type="passenger">
		<route edges="50201 50213 50197"/>
	</vehicle>
	<vehicle depart="0.1" departLane="0" departPos="106.89237308858561" departSpeed="2.1372062" id="2" type="passenger">
		<route edges="50195 50211 50199"/>
	</vehicle>
	<vehicle depart="0.1" departLane="0" departPos="147.3986059863715" departSpeed="2.377508" id="4" type="passenger">
		<route edges="50205 50217 50199"/>
	</vehicle>
	<vehicle depart="0.1" departLane="0" departPos="155.39876778643918" departSpeed="2.8686937" id="5" type="passenger">
		<route edges="50205 50217 50199"/>
	</vehicle>
	<vehicle depart="0.1" departLane="0" departPos="71.74119424119823" departSpeed="0.79021456" id="7" type="passenger">
		<route edges="50201 50213 50197"/>
	</vehicle>
</routes>
