<!-- generated on 2020-12-18 15:55:23.588543 by ipykernel_launcher.py v1_2_0+5214-53edc58fcd
-->
<edges>
	<edge from="1" function="normal" id="20" length="79.53668427363294" numLanes="5" priority="1" speed="36.11111111111111" spreadType="center" to="2">
		<lane allow="moped bicycle pedestrian custom1 trailer evehicle rail_urban ship private vip custom2 authority delivery rail_electric taxi tram army hov coach motorcycle passenger rail emergency" index="0" length="79.53668427363294" shape="-32.9186,31.588499999999996 -27.63625,26.65325 -24.79855,23.88915 -20.25895,19.64315 -16.7408,16.3988 -13.8353,13.704699999999999 -6.023300000000001,6.58795 -5.4430499999999995,6.0503 -3.0813,3.8786500000000004 4.2256,-2.7366 5.025,-3.469 7.9442,-6.18525 11.00645,-8.9345 15.819849999999999,-13.1037 18.76735,-15.7486 20.31575,-17.08805 26.2539,-22.252049999999997 26.26335,-22.2603" speed="36.11111111111111" width="3.4981492535339296"/>
		<lane allow="moped bicycle pedestrian custom1 trailer evehicle rail_urban ship private truck vip custom2 authority delivery rail_electric taxi tram army hov coach motorcycle passenger rail emergency" index="1" length="79.53668427363294" shape="-30.5522,34.11135 -27.295749999999998,31.085700000000003 -25.242449999999998,29.1141 -24.502699999999997,28.37435 -22.506999999999998,26.4698 -16.502850000000002,20.96315 -14.3553,18.97185 -13.59855,18.266199999999998 -11.4725,16.30305 -5.819599999999999,11.174700000000001 -3.6144499999999997,9.154 -2.92575,8.511849999999999 -0.7476499999999999,6.52315 5.3861,1.0088499999999998 7.456899999999999,-0.89245 8.2792,-1.65925 10.31765,-3.5163 16.1416,-8.6354 18.17775,-10.46855 19.028100000000002,-11.2615 21.027549999999998,-13.068349999999999 27.1405,-18.3961 28.5387,-19.6533" speed="36.11111111111111" width="3.2505506856531254"/>
		<lane allow="moped bicycle pedestrian custom1 trailer evehicle rail_urban ship private vip custom2 authority delivery rail_electric taxi tram army hov coach motorcycle passenger rail emergency" index="2" length="79.53668427363294" shape="-28.278750000000002,36.5351 -28.045,36.30885 -25.057499999999997,33.5268 -22.2426,30.8208 -19.98785,28.74725 -17.1237,26.0138 -14.2604,23.42125 -11.3535,20.75815 -8.7429,18.3891 -5.831799999999999,15.70115 -3.5858,13.655000000000001 -0.6820499999999999,10.98365 2.04535,8.526299999999999 4.97105,5.8549500000000005 7.61665,3.48585 10.51685,0.8337500000000001 13.0807,-1.4578 16.00925,-4.1257 18.272750000000002,-6.09225 21.20055,-8.693950000000001 23.9634,-11.078949999999999 26.902099999999997,-13.7347 29.3416,-15.87755 30.7331,-17.139049999999997" speed="36.11111111111111" width="3.189710972799888"/>
		<lane allow="moped bicycle pedestrian custom1 trailer evehicle rail_urban ship private vip custom2 authority delivery rail_electric taxi tram army hov coach motorcycle passenger rail emergency" index="3" length="79.53668427363294" shape="-26.0002,38.9643 -25.731650000000002,38.69605 -25.5292,38.5031 -17.70685,31.21545 -17.69435,31.20295 -14.90455,28.5103 -14.7249,28.3425 -6.73395,21.0904 -6.4711,20.84915 -3.85585,18.410400000000003 -3.59255,18.1669 4.11425,11.134450000000001 4.28405,10.978 6.9967500000000005,8.4484 7.13,8.32685 15.14015,1.159 15.317250000000001,0.99665 18.01565,-1.5196500000000002 18.13725,-1.6295 26.17445,-8.55125 26.25875,-8.6274 29.11275,-11.286549999999998 29.23095,-11.392800000000001 32.9502,-14.5988" speed="36.11111111111111" width="3.211875866218994"/>
		<lane allow="moped bicycle pedestrian custom1 trailer evehicle rail_urban ship private vip custom2 authority delivery rail_electric taxi tram army hov coach motorcycle passenger rail emergency" index="4" length="79.53668427363294" shape="-23.62415,41.4975 -23.12595,40.99995 -22.8887,40.77145 -15.26,33.61585 -14.974699999999999,33.349050000000005 -12.3662,30.91655 -12.0632,30.6368 -4.41775,23.6422 -4.127,23.3737 -1.5063,20.929949999999998 -1.2051,20.6515 6.418200000000001,13.659 6.7087,13.3903 9.3278,10.94815 9.64875,10.65595 17.4266,3.71465 17.71895,3.44795 20.356,0.9900499999999999 20.692349999999998,0.6876500000000001 28.5428,-6.17155 28.8365,-6.43665 31.4876,-8.90645 31.85035,-9.2252 35.1857,-12.03745" speed="36.11111111111111" width="3.479396558312951"/>
	</edge>
	<edge from="2" function="normal" id="16" length="107.81371555591235" numLanes="6" priority="1" speed="36.11111111111111" spreadType="center" to="3">
		<lane allow="moped bicycle pedestrian custom1 trailer evehicle rail_urban ship private vip custom2 authority delivery rail_electric taxi tram army hov coach motorcycle passenger rail emergency" index="0" length="107.81371555591235" shape="23.7971,-25.086 25.96135,-26.941000000000003 26.68475,-27.58685 29.354599999999998,-29.90085 30.07795,-30.5467 32.78005,-32.925 33.5034,-33.570899999999995 36.2208,-35.959500000000006 36.94415,-36.60535 39.614,-38.919399999999996 40.3374,-39.56525 41.064350000000005,-40.19645 43.06785,-41.93885 43.79075,-42.585300000000004 46.474199999999996,-44.94605 47.1971,-45.5925 49.949250000000006,-47.990899999999996 50.67215,-48.63735 53.243849999999995,-50.863299999999995 53.9667,-51.50975 56.68355,-53.8413 57.40645,-54.487700000000004 60.25035,-56.9987 60.97325,-57.64515 63.6323,-59.998149999999995 64.3552,-60.6446 67.16825,-63.0663 67.89115000000001,-63.7127 70.52145,-66.0147 71.2443,-66.66114999999999 73.9522,-69.02969999999999 74.59675,-69.6066 74.67859999999999,-69.67895 77.50375,-72.06055 78.22735,-72.70609999999999 80.84815,-75.06290000000001 81.5718,-75.70840000000001 84.2427,-78.02144999999999 84.9663,-78.667 87.75915,-81.1149 88.48275000000001,-81.76044999999999 90.993,-83.92345 91.71664999999999,-84.569 94.49164999999999,-86.99435 95.21525,-87.63990000000001 97.91185,-89.90145000000001 98.63550000000001,-90.54705 101.3771,-93.00155000000001 102.10075,-93.6471 102.75895,-94.21815000000001 104.83485,-96.02005 104.91839999999999,-96.0949" speed="36.11111111111111" width="3.682465925164822"/>
		<lane allow="moped bicycle pedestrian custom1 trailer evehicle rail_urban ship private vip custom2 authority delivery rail_electric taxi tram army hov coach motorcycle passenger rail emergency" index="1" length="107.81371555591235" shape="26.26335,-22.2603 26.8692,-22.77715 28.44975,-24.18015 29.16265,-24.837699999999998 29.8018,-25.40815 31.646549999999998,-26.93425 32.30115,-27.488999999999997 32.4141,-27.5801 33.0064,-28.07895 33.18785,-28.244 35.28115,-30.1377 35.30265,-30.15745 36.00095,-30.8017 36.093900000000005,-30.8853 38.6573,-33.13925 39.3382,-33.74715 39.4077,-33.8074 42.06595,-36.1136 42.7311,-36.7076 42.79455,-36.7629 43.26565,-37.1733 45.53295,-39.2091 46.1725,-39.798950000000005 46.19675,-39.820350000000005 52.3317,-45.0984 53.00635,-45.6886 53.1045,-45.77205 54.0125,-46.54505 54.077200000000005,-46.605000000000004 55.7455,-48.09455 56.458349999999996,-48.75215 56.97485,-49.206149999999994 59.124399999999994,-51.040099999999995 59.77945,-51.62235 59.83125,-51.667699999999996 62.66355,-54.15445 63.35395,-54.767700000000005 63.4036,-54.811099999999996 65.0153,-56.2295 66.1235,-57.241600000000005 66.83645000000001,-57.8992 67.98984999999999,-58.9207 69.58545000000001,-60.28005 70.22964999999999,-60.850049999999996 70.2992,-60.91025 72.928,-63.188599999999994 73.59649999999999,-63.77965 73.6679,-63.8414 75.98920000000001,-65.85220000000001 76.01025,-65.8706 76.4014,-66.21119999999999 77.13185,-66.86160000000001 79.0701,-68.4916 79.9622,-69.24635 80.62950000000001,-69.84264999999999 83.2252,-72.1803 83.2749,-72.22425 83.96965,-72.8461 84.03954999999999,-72.9067 86.69635,-75.21289999999999 86.84305,-75.34345 87.3492,-75.79509999999999 87.40625,-75.84505 89.9017,-78.02965 90.2278,-78.319 90.9476,-78.969 93.4443,-81.1468 94.136,-81.77145 94.17805000000001,-81.8085 96.9243,-84.23885 97.64410000000001,-84.88885 98.59415,-85.69239999999999 100.3185,-87.13775000000001 100.9793,-87.72625 101.4388,-88.13595000000001 103.68379999999999,-90.12700000000001 104.41890000000001,-90.77635000000001 104.50215,-90.8478 107.24125000000001,-93.20165 107.38475,-93.3275" speed="36.11111111111111" width="3.504353214217994"/>
		<lane allow="moped bicycle pedestrian custom1 trailer evehicle rail_urban ship private vip custom2 authority delivery rail_electric taxi tram army hov coach motorcycle passenger rail emergency" index="2" length="107.81371555591235" shape="28.5387,-19.6533 29.14465,-20.199399999999997 30.02695,-21.022199999999998 31.90305,-22.690150000000003 32.0659,-22.8231 35.43755,-25.593400000000003 37.9618,-27.8315 38.0687,-27.930149999999998 38.4384,-28.270699999999998 38.494749999999996,-28.32045 41.06165,-30.63815 45.52095,-34.4867 48.39065,-37.043949999999995 48.5086,-37.14465 49.1464,-37.689 49.222750000000005,-37.7594 52.11995,-40.3232 56.30485,-43.877700000000004 59.14965,-46.4216 59.24705,-46.50575 60.2525,-47.375299999999996 63.20285,-50.0266 67.3109,-53.54975 70.17035,-56.094 70.28229999999999,-56.18985 71.39595,-57.1447 71.45505,-57.1994 74.3527,-59.7899 78.3184,-63.2596 81.29225,-65.87790000000001 82.41525,-66.8698 85.39335,-69.46725 89.2081,-72.79705 92.20385,-75.4032 93.31135,-76.37995000000001 96.28125,-78.99775 100.80715000000001,-83.00104999999999 100.83765,-83.0276 103.81915,-85.6288 104.41175000000001,-86.14105 107.4134,-88.72745 109.71770000000001,-90.70984999999999" speed="36.11111111111111" width="3.2168796822386825"/>
		<lane allow="moped bicycle pedestrian custom1 trailer evehicle rail_urban ship private truck vip custom2 authority delivery rail_electric taxi tram army hov coach motorcycle passenger rail emergency" index="3" length="107.81371555591235" shape="30.7331,-17.139049999999997 32.2038,-18.472099999999998 32.304050000000004,-18.55835 35.180350000000004,-21.043 38.1425,-23.6725 40.27785,-25.4771 43.1145,-27.996299999999998 43.23305,-28.097099999999998 46.245850000000004,-30.658749999999998 49.20375,-33.29545 51.3457,-35.1451 54.206900000000005,-37.7299 54.2977,-37.80855 57.3612,-40.46485 60.31425,-43.1055 62.35615,-44.82825 65.21895,-47.34625 65.35105,-47.45715 68.48675,-50.095600000000005 71.44695,-52.73025 73.61155,-54.59065 76.46809999999999,-57.1632 76.5391,-57.2256 79.71895,-60.0275 82.64699999999999,-62.69755 84.53025,-64.3492 84.56725,-64.38125000000001 87.55745,-66.97055 90.7782,-69.761 90.7894,-69.7708 93.7799,-72.3723 95.55215,-73.9348 98.52535,-76.55369999999999 101.7207,-79.37815 104.70665,-81.9829 106.58930000000001,-83.6487 109.56125,-86.26894999999999 111.8669,-88.29835" speed="36.11111111111111" width="3.1175293182262114"/>
		<lane allow="moped bicycle pedestrian custom1 trailer evehicle rail_urban ship private vip custom2 authority delivery rail_electric taxi tram army hov coach motorcycle passenger rail emergency" index="4" length="107.81371555591235" shape="32.9502,-14.5988 37.25895,-18.31285 37.451449999999994,-18.48825 40.123450000000005,-20.9799 40.1846,-21.036949999999997 40.3112,-21.144849999999998 48.4514,-28.0845 48.6203,-28.23735 51.402249999999995,-30.8278 51.563649999999996,-30.97255 59.5727,-37.8496 59.645849999999996,-37.9169 62.42985,-40.513 70.67914999999999,-47.5616 70.80000000000001,-47.6719 73.61395,-50.294 73.7439,-50.40975 81.89455000000001,-57.408100000000005 82.01155,-57.514849999999996 84.75045,-60.0689 92.72040000000001,-66.98570000000001 93.00195,-67.22945 95.70725,-69.58109999999999 95.99515,-69.832 103.7761,-76.7024 103.90015,-76.81184999999999 103.93350000000001,-76.84085 106.8103,-79.34205 106.9393,-79.45575 114.0724,-85.82365" speed="36.11111111111111" width="3.2654832184532787"/>
		<lane allow="moped bicycle pedestrian custom1 trailer evehicle rail_urban ship private vip custom2 authority delivery rail_electric taxi tram army hov coach motorcycle passenger rail emergency" index="5" length="107.81371555591235" shape="35.1857,-12.03745 39.51875,-15.691 39.75065,-15.89375 39.87565,-16.01 42.486900000000006,-18.4394 42.8393,-18.752850000000002 50.9096,-25.680950000000003 51.151799999999994,-25.8957 51.255,-25.991799999999998 53.86535,-28.422150000000002 54.23075,-28.74315 61.86775,-35.17745 62.09925,-35.3797 62.22515,-35.4968 64.83645,-37.92615 65.17215,-38.2289 73.06895,-45.1642 73.3241,-45.39405 73.39945,-45.46425 76.0089,-47.89555 76.3687,-48.21295 84.13575,-54.7975 84.37075,-55.00385 84.48915,-55.1141 87.1002,-57.54375 87.4406,-57.849549999999994 94.959,-64.40655000000001 95.3474,-64.74475 97.94704999999999,-67.00455 98.328,-67.3365 106.10045,-74.12575 106.48769999999999,-74.46315 109.08734999999999,-76.72305 109.42750000000001,-77.0223 109.4597,-77.05095 116.38804999999999,-83.22540000000001" speed="36.11111111111111" width="3.4791584298505245"/>
	</edge>
	<edge from="4" function="normal" id="17" length="80.30992451730536" numLanes="1" priority="1" speed="36.11111111111111" spreadType="center" to="2">
		<lane allow="moped bicycle pedestrian custom1 trailer evehicle rail_urban ship private truck vip custom2 authority delivery rail_electric taxi tram army hov coach motorcycle passenger bus rail emergency" index="0" length="80.30992451730536" shape="-38.121,26.04215 -33.1115,22.1987 -26.67475,17.0616 -21.546599999999998,12.88765 -13.825,6.6019000000000005 -12.170850000000002,5.23525 -3.61925,-1.86805 8.2258,-11.65345 8.547,-11.9189 14.40385,-16.90065 17.863799999999998,-19.905549999999998 23.7971,-25.086" speed="36.11111111111111" width="3.640006708785026"/>
	</edge>
</edges>
