<?xml version="1.0" encoding="UTF-8"?>

<!-- generated on Fri Dec 18 15:55:23 2020 by Eclipse SUMO netconvert Version 1.8.0
<configuration xmlns:xsi="http://www.w3.org/2001/XMLSchema-instance" xsi:noNamespaceSchemaLocation="http://sumo.dlr.de/xsd/netconvertConfiguration.xsd">

    <input>
        <node-files value="./converted_scenarios/NGSIM/US101/USA_US101-20_1_I-1-1/nodes.net.xml"/>
        <edge-files value="./converted_scenarios/NGSIM/US101/USA_US101-20_1_I-1-1/edges.net.xml"/>
        <connection-files value="./converted_scenarios/NGSIM/US101/USA_US101-20_1_I-1-1/_connections.net.xml"/>
        <tllogic-files value="./converted_scenarios/NGSIM/US101/USA_US101-20_1_I-1-1/_tll.net.xml"/>
    </input>

    <output>
        <output-file value="./converted_scenarios/NGSIM/US101/USA_US101-20_1_I-1-1/USA_US101-20_1_I-1-1.net.xml"/>
    </output>

    <processing>
        <plain.extend-edge-shape value="true"/>
        <geometry.remove.keep-edges.explicit value="true"/>
        <geometry.avoid-overlap value="true"/>
        <offset.disable-normalization value="true"/>
    </processing>

    <junctions>
        <no-turnarounds value="true"/>
        <junctions.internal-link-detail value="20"/>
    </junctions>

    <report>
        <aggregate-warnings value="5"/>
    </report>

    <random_number>
        <seed value="1234"/>
    </random_number>

</configuration>
-->

<net version="1.6" junctionCornerDetail="5" junctionLinkDetail="20" limitTurnSpeed="5.50" xmlns:xsi="http://www.w3.org/2001/XMLSchema-instance" xsi:noNamespaceSchemaLocation="http://sumo.dlr.de/xsd/net_file.xsd">

    <location netOffset="0.00,0.00" convBoundary="-38.12,-89.58,110.72,36.54" origBoundary="-38.12,-96.09,116.39,41.50" projParameter="!"/>

    <edge id=":2_0" function="internal">
        <lane id=":2_0_0" index="0" disallow="bus truck rail_fast" speed="36.11" length="5.32" width="3.68" shape="22.67,-24.10 26.69,-27.59"/>
    </edge>
    <edge id=":2_1" function="internal">
        <lane id=":2_1_0" index="0" disallow="bus truck rail_fast" speed="36.11" length="5.31" width="3.50" shape="25.13,-21.28 29.11,-24.79"/>
        <lane id=":2_1_1" index="1" disallow="bus truck rail_fast" speed="36.11" length="5.31" width="3.22" shape="27.42,-18.65 31.36,-22.21"/>
        <lane id=":2_1_2" index="2" disallow="bus truck rail_fast" speed="36.11" length="5.31" width="3.12" shape="29.61,-16.12 33.58,-19.66"/>
        <lane id=":2_1_3" index="3" disallow="bus truck rail_fast" speed="36.11" length="5.31" width="3.27" shape="31.80,-13.61 35.82,-17.07"/>
        <lane id=":2_1_4" index="4" disallow="bus truck rail_fast" speed="36.11" length="5.31" width="3.48" shape="34.02,-11.05 38.08,-14.48"/>
    </edge>

    <edge id="16" from="2" to="3" priority="1" spreadType="center" length="107.81">
        <lane id="16_0" index="0" disallow="bus truck rail_fast" speed="36.11" length="107.81" width="3.68" acceleration="1" customShape="1" shape="26.69,-27.59 29.35,-29.90 30.08,-30.55 32.78,-32.92 33.50,-33.57 36.22,-35.96 36.94,-36.61 39.61,-38.92 40.34,-39.57 41.06,-40.20 43.07,-41.94 43.79,-42.59 46.47,-44.95 47.20,-45.59 49.95,-47.99 50.67,-48.64 53.24,-50.86 53.97,-51.51 56.68,-53.84 57.41,-54.49 60.25,-57.00 60.97,-57.65 63.63,-60.00 64.36,-60.64 67.17,-63.07 67.89,-63.71 70.52,-66.01 71.24,-66.66 73.95,-69.03 74.60,-69.61 74.68,-69.68 77.50,-72.06 78.23,-72.71 80.85,-75.06 81.57,-75.71 84.24,-78.02 84.97,-78.67 87.76,-81.11 88.48,-81.76 90.99,-83.92 91.72,-84.57 94.49,-86.99 95.22,-87.64 97.91,-89.90 98.64,-90.55 101.38,-93.00 102.10,-93.65 102.76,-94.22 104.83,-96.02 104.92,-96.09"/>
        <lane id="16_1" index="1" disallow="bus truck rail_fast" speed="36.11" length="107.81" width="3.50" customShape="1" shape="29.11,-24.79 29.80,-25.41 31.65,-26.93 32.30,-27.49 32.41,-27.58 33.01,-28.08 33.19,-28.24 35.28,-30.14 36.00,-30.80 36.09,-30.89 38.66,-33.14 39.34,-33.75 42.07,-36.11 42.73,-36.71 43.27,-37.17 45.53,-39.21 46.17,-39.80 52.33,-45.10 53.01,-45.69 53.10,-45.77 54.01,-46.55 55.75,-48.09 56.46,-48.75 56.97,-49.21 59.12,-51.04 59.78,-51.62 62.66,-54.15 63.35,-54.77 65.02,-56.23 66.12,-57.24 66.84,-57.90 67.99,-58.92 69.59,-60.28 70.23,-60.85 72.93,-63.19 73.60,-63.78 75.99,-65.85 76.40,-66.21 77.13,-66.86 79.07,-68.49 79.96,-69.25 80.63,-69.84 83.23,-72.18 83.97,-72.85 86.70,-75.21 86.84,-75.34 87.35,-75.80 89.90,-78.03 90.23,-78.32 90.95,-78.97 93.44,-81.15 94.14,-81.77 96.92,-84.24 97.64,-84.89 98.59,-85.69 100.32,-87.14 100.98,-87.73 101.44,-88.14 103.68,-90.13 104.42,-90.78 104.50,-90.85 107.24,-93.20 107.38,-93.33"/>
        <lane id="16_2" index="2" disallow="bus truck rail_fast" speed="36.11" length="107.81" width="3.22" customShape="1" shape="31.36,-22.21 31.90,-22.69 32.07,-22.82 35.44,-25.59 37.96,-27.83 38.07,-27.93 38.44,-28.27 41.06,-30.64 45.52,-34.49 48.39,-37.04 48.51,-37.14 49.15,-37.69 49.22,-37.76 52.12,-40.32 56.30,-43.88 59.15,-46.42 59.25,-46.51 60.25,-47.38 63.20,-50.03 67.31,-53.55 70.17,-56.09 70.28,-56.19 71.40,-57.14 74.35,-59.79 78.32,-63.26 81.29,-65.88 82.42,-66.87 85.39,-69.47 89.21,-72.80 92.20,-75.40 93.31,-76.38 96.28,-79.00 100.81,-83.00 103.82,-85.63 104.41,-86.14 107.41,-88.73 109.72,-90.71"/>
        <lane id="16_3" index="3" disallow="bus rail_fast" speed="36.11" length="107.81" width="3.12" customShape="1" shape="33.58,-19.66 35.18,-21.04 38.14,-23.67 40.28,-25.48 43.11,-28.00 43.23,-28.10 46.25,-30.66 49.20,-33.30 51.35,-35.15 54.21,-37.73 54.30,-37.81 57.36,-40.46 60.31,-43.11 62.36,-44.83 65.22,-47.35 65.35,-47.46 68.49,-50.10 71.45,-52.73 73.61,-54.59 76.47,-57.16 79.72,-60.03 82.65,-62.70 84.53,-64.35 87.56,-66.97 90.78,-69.76 93.78,-72.37 95.55,-73.93 98.53,-76.55 101.72,-79.38 104.71,-81.98 106.59,-83.65 109.56,-86.27 111.87,-88.30"/>
        <lane id="16_4" index="4" disallow="bus truck rail_fast" speed="36.11" length="107.81" width="3.27" customShape="1" shape="35.82,-17.07 37.26,-18.31 37.45,-18.49 40.12,-20.98 40.31,-21.14 48.45,-28.08 48.62,-28.24 51.40,-30.83 51.56,-30.97 59.57,-37.85 62.43,-40.51 70.68,-47.56 70.80,-47.67 73.61,-50.29 73.74,-50.41 81.89,-57.41 82.01,-57.51 84.75,-60.07 92.72,-66.99 93.00,-67.23 95.71,-69.58 96.00,-69.83 103.78,-76.70 103.90,-76.81 106.81,-79.34 106.94,-79.46 114.09,-85.84"/>
        <lane id="16_5" index="5" disallow="bus truck rail_fast" speed="36.11" length="107.81" width="3.48" customShape="1" shape="38.08,-14.48 39.52,-15.69 39.75,-15.89 39.88,-16.01 42.49,-18.44 42.84,-18.75 50.91,-25.68 51.15,-25.90 51.26,-25.99 53.87,-28.42 54.23,-28.74 61.87,-35.18 62.10,-35.38 62.23,-35.50 64.84,-37.93 65.17,-38.23 73.07,-45.16 73.32,-45.39 73.40,-45.46 76.01,-47.90 76.37,-48.21 84.14,-54.80 84.37,-55.00 84.49,-55.11 87.10,-57.54 87.44,-57.85 94.96,-64.41 95.35,-64.74 97.95,-67.00 98.33,-67.34 106.10,-74.13 106.49,-74.46 109.09,-76.72 109.43,-77.02 116.42,-83.25"/>
    </edge>
    <edge id="17" from="4" to="2" priority="1" spreadType="center" length="80.31">
        <lane id="17_0" index="0" disallow="rail_fast" speed="36.11" length="80.31" width="3.64" customShape="1" shape="-38.12,26.04 -33.11,22.20 -26.67,17.06 -21.55,12.89 -13.82,6.60 -12.17,5.24 -3.62,-1.87 8.23,-11.65 8.55,-11.92 14.40,-16.90 17.86,-19.91 22.67,-24.10"/>
    </edge>
    <edge id="20" from="1" to="2" priority="1" spreadType="center" length="79.54">
        <lane id="20_0" index="0" disallow="bus truck rail_fast" speed="36.11" length="79.54" width="3.50" customShape="1" shape="-33.07,31.73 -27.64,26.65 -24.80,23.89 -20.26,19.64 -16.74,16.40 -13.84,13.70 -6.02,6.59 -5.44,6.05 -3.08,3.88 4.23,-2.74 5.03,-3.47 7.94,-6.19 11.01,-8.93 15.82,-13.10 18.77,-15.75 20.32,-17.09 25.13,-21.28"/>
        <lane id="20_1" index="1" disallow="bus rail_fast" speed="36.11" length="79.54" width="3.25" customShape="1" shape="-30.63,34.18 -27.30,31.09 -25.24,29.11 -24.50,28.37 -22.51,26.47 -16.50,20.96 -14.36,18.97 -13.60,18.27 -11.47,16.30 -5.82,11.17 -3.61,9.15 -2.93,8.51 -0.75,6.52 5.39,1.01 7.46,-0.89 8.28,-1.66 10.32,-3.52 16.14,-8.64 18.18,-10.47 19.03,-11.26 21.03,-13.07 27.14,-18.40 27.42,-18.65"/>
        <lane id="20_2" index="2" disallow="bus truck rail_fast" speed="36.11" length="79.54" width="3.19" customShape="1" shape="-28.28,36.54 -28.05,36.31 -25.06,33.53 -22.24,30.82 -19.99,28.75 -17.12,26.01 -14.26,23.42 -11.35,20.76 -8.74,18.39 -5.83,15.70 -3.59,13.66 -0.68,10.98 2.05,8.53 4.97,5.85 7.62,3.49 10.52,0.83 13.08,-1.46 16.01,-4.13 18.27,-6.09 21.20,-8.69 23.96,-11.08 26.90,-13.73 29.34,-15.88 29.61,-16.12"/>
        <lane id="20_3" index="3" disallow="bus truck rail_fast" speed="36.11" length="79.54" width="3.21" customShape="1" shape="-25.93,38.89 -25.73,38.70 -25.53,38.50 -17.71,31.22 -14.90,28.51 -14.72,28.34 -6.73,21.09 -6.47,20.85 -3.86,18.41 -3.59,18.17 4.11,11.13 4.28,10.98 7.00,8.45 7.13,8.33 15.14,1.16 15.32,1.00 18.02,-1.52 18.14,-1.63 26.17,-8.55 26.26,-8.63 29.11,-11.29 29.23,-11.39 31.80,-13.61"/>
        <lane id="20_4" index="4" disallow="bus truck rail_fast" speed="36.11" length="79.54" width="3.48" customShape="1" shape="-23.47,41.35 -23.13,41.00 -22.89,40.77 -15.26,33.62 -14.97,33.35 -12.37,30.92 -12.06,30.64 -4.42,23.64 -4.13,23.37 -1.51,20.93 -1.21,20.65 6.42,13.66 6.71,13.39 9.33,10.95 9.65,10.66 17.43,3.71 17.72,3.45 20.36,0.99 20.69,0.69 28.54,-6.17 28.84,-6.44 31.49,-8.91 31.85,-9.23 34.02,-11.05"/>
    </edge>

    <junction id="1" type="dead_end" x="-28.27" y="36.54" incLanes="" intLanes="" shape="-22.24,42.58 -34.31,30.50"/>
    <junction id="2" type="priority" x="30.73" y="-17.14" incLanes="17_0 20_0 20_1 20_2 20_3 20_4" intLanes=":2_0_0 :2_1_0 :2_1_1 :2_1_2 :2_1_3 :2_1_4" shape="39.22,-13.16 25.48,-28.98 21.47,-25.47 23.86,-22.73 23.98,-22.60 35.16,-9.74">
        <request index="0" response="000000" foes="000000" cont="0"/>
        <request index="1" response="000000" foes="000000" cont="0"/>
        <request index="2" response="000000" foes="000000" cont="0"/>
        <request index="3" response="000000" foes="000000" cont="0"/>
        <request index="4" response="000000" foes="000000" cont="0"/>
        <request index="5" response="000000" foes="000000" cont="0"/>
    </junction>
    <junction id="3" type="dead_end" x="110.72" y="-89.58" incLanes="16_0 16_1 16_2 16_3 16_4 16_5" intLanes="" shape="103.65,-97.43 117.58,-81.96"/>
    <junction id="4" type="dead_end" x="-38.12" y="26.04" incLanes="" intLanes="" shape="-37.01,27.49 -39.23,24.60"/>

    <connection from="17" to="16" fromLane="0" toLane="0" contPos="-4.00" via=":2_0_0" dir="s" state="M"/>
    <connection from="20" to="16" fromLane="0" toLane="1" contPos="-4.00" via=":2_1_0" dir="s" state="M"/>
    <connection from="20" to="16" fromLane="1" toLane="2" contPos="-4.00" via=":2_1_1" dir="s" state="M"/>
    <connection from="20" to="16" fromLane="2" toLane="3" contPos="-4.00" via=":2_1_2" dir="s" state="M"/>
    <connection from="20" to="16" fromLane="3" toLane="4" contPos="-4.00" via=":2_1_3" dir="s" state="M"/>
    <connection from="20" to="16" fromLane="4" toLane="5" contPos="-4.00" via=":2_1_4" dir="s" state="M"/>

    <connection from=":2_0" to="16" fromLane="0" toLane="0" dir="s" state="M"/>
    <connection from=":2_1" to="16" fromLane="0" toLane="1" dir="s" state="M"/>
    <connection from=":2_1" to="16" fromLane="1" toLane="2" dir="s" state="M"/>
    <connection from=":2_1" to="16" fromLane="2" toLane="3" dir="s" state="M"/>
    <connection from=":2_1" to="16" fromLane="3" toLane="4" dir="s" state="M"/>
    <connection from=":2_1" to="16" fromLane="4" toLane="5" dir="s" state="M"/>

</net>
