<routes>
	<vehicle depart="0.1" departLane="2" departPos="88.10914930767947" departSpeed="13.588" id="438" type="passenger">
		<route edges="16"/>
	</vehicle>
	<vehicle depart="0.1" departLane="3" departPos="103.71591449350971" departSpeed="14.225" id="439" type="passenger">
		<route edges="16"/>
	</vehicle>
	<vehicle depart="0.1" departLane="1" departPos="102.93848834883154" departSpeed="16.3068" id="441" type="passenger">
		<route edges="16"/>
	</vehicle>
	<vehicle depart="0.1" departLane="5" departPos="95.33799956563418" departSpeed="13.7069" id="442" type="passenger">
		<route edges="16"/>
	</vehicle>
	<vehicle depart="0.1" departLane="3" departPos="86.45090515786366" departSpeed="13.6886" id="443" type="passenger">
		<route edges="16"/>
	</vehicle>
	<vehicle depart="0.1" departLane="1" departPos="81.3806132918596" departSpeed="15.1882" id="445" type="passenger">
		<route edges="16"/>
	</vehicle>
	<vehicle depart="0.1" departLane="4" departPos="73.28427163209017" departSpeed="13.7282" id="446" type="passenger">
		<route edges="16"/>
	</vehicle>
	<vehicle depart="0.1" departLane="3" departPos="46.61024281453301" departSpeed="13.713" id="447" type="passenger">
		<route edges="16"/>
	</vehicle>
	<vehicle depart="0.1" departLane="1" departPos="44.81330167131804" departSpeed="13.7404" id="449" type="passenger">
		<route edges="16"/>
	</vehicle>
	<vehicle depart="0.1" departLane="4" departPos="48.484120747271476" departSpeed="13.0973" id="450" type="passenger">
		<route edges="16"/>
	</vehicle>
	<vehicle depart="0.1" departLane="5" departPos="54.271444590787915" departSpeed="11.3203" id="451" type="passenger">
		<route edges="16"/>
	</vehicle>
	<vehicle depart="0.1" departLane="1" departPos="15.130567057617117" departSpeed="17.9923" id="452" type="passenger">
		<route edges="16 16"/>
	</vehicle>
	<vehicle depart="0.1" departLane="4" departPos="34.36725283260867" departSpeed="12.3109" id="456" type="passenger">
		<route edges="16"/>
	</vehicle>
	<vehicle depart="0.1" departLane="3" departPos="17.80765576226381" departSpeed="13.716" id="457" type="passenger">
		<route edges="16"/>
	</vehicle>
	<vehicle depart="0.1" departLane="5" departPos="29.365215958967433" departSpeed="7.6139" id="458" type="passenger">
		<route edges="16"/>
	</vehicle>
	<vehicle depart="0.1" departLane="2" departPos="10.041978803654713" departSpeed="11.8201" id="462" type="passenger">
		<route edges="16"/>
	</vehicle>
	<vehicle depart="0.1" departLane="1" departPos="79.89683967960885" departSpeed="10.7686" id="464" type="passenger">
		<route edges="20 16"/>
	</vehicle>
	<vehicle depart="0.1" departLane="0" departPos="64.36593195717334" departSpeed="13.4965" id="465" type="passenger">
		<route edges="20 16 16"/>
	</vehicle>
	<vehicle depart="0.1" departLane="2" departPos="71.19319342596224" departSpeed="13.7861" id="467" type="passenger">
		<route edges="20 16"/>
	</vehicle>
	<vehicle depart="0.1" departLane="5" departPos="12.60547778242809" departSpeed="6.1265" id="468" type="passenger">
		<route edges="16"/>
	</vehicle>
	<vehicle depart="0.1" departLane="1" departPos="0" departSpeed="13.2375" id="469" type="passenger">
		<route edges="16"/>
	</vehicle>
	<vehicle depart="0.1" departLane="3" departPos="79.66035789513982" departSpeed="10.732" id="472" type="passenger">
		<route edges="20 16"/>
	</vehicle>
	<vehicle depart="0.1" departLane="4" departPos="79.53668427363294" departSpeed="5.334" id="475" type="passenger">
		<route edges="20 16"/>
	</vehicle>
	<vehicle depart="0.1" departLane="1" departPos="62.271130469393285" departSpeed="11.11" id="476" type="passenger">
		<route edges="20 16"/>
	</vehicle>
	<vehicle depart="0.1" departLane="3" departPos="53.68781744935969" departSpeed="10.665" id="477" type="passenger">
		<route edges="20 16"/>
	</vehicle>
	<vehicle depart="0.1" departLane="1" departPos="33.32454912053825" departSpeed="10.5065" id="481" type="passenger">
		<route edges="20 16"/>
	</vehicle>
	<vehicle depart="0.1" departLane="0" departPos="24.641200246179004" departSpeed="11.8019" id="482" type="passenger">
		<route edges="20 16"/>
	</vehicle>
	<vehicle depart="0.1" departLane="2" departPos="23.493182738554975" departSpeed="10.9454" id="483" type="passenger">
		<route edges="20 16"/>
	</vehicle>
	<vehicle depart="0.1" departLane="3" departPos="35.56678348115733" departSpeed="10.665" id="484" type="passenger">
		<route edges="20 16"/>
	</vehicle>
	<vehicle depart="0.1" departLane="4" departPos="62.522319953891625" departSpeed="3.8222" id="485" type="passenger">
		<route edges="20 16"/>
	</vehicle>
	<vehicle depart="0.1" departLane="1" departPos="20.887282229217853" departSpeed="9.6225" id="486" type="passenger">
		<route edges="20 16 16"/>
	</vehicle>
	<vehicle depart="0.1" departLane="0" departPos="0" departSpeed="12.189" id="488" type="passenger">
		<route edges="20 16"/>
	</vehicle>
	<vehicle depart="0.1" departLane="3" departPos="5.9057838577152655" departSpeed="9.6256" id="489" type="passenger">
		<route edges="20 16"/>
	</vehicle>
	<vehicle depart="0.1" departLane="1" departPos="0" departSpeed="9.522" id="492" type="passenger">
		<route edges="20 16"/>
	</vehicle>
	<vehicle depart="0.1" departLane="4" departPos="44.90078297846635" departSpeed="4.5415" id="493" type="passenger">
		<route edges="20 16"/>
	</vehicle>
	<vehicle depart="0.1" departLane="4" departPos="34.06904741302036" departSpeed="3.0419" id="494" type="passenger">
		<route edges="20 16"/>
	</vehicle>
	<vehicle depart="0.1" departLane="4" departPos="19.424490792003336" departSpeed="0.74676" id="507" type="passenger">
		<route edges="20 16"/>
	</vehicle>
	<vehicle depart="0.1" departLane="4" departPos="10.924205218324662" departSpeed="0.0" id="523" type="passenger">
		<route edges="20 16"/>
	</vehicle>
	<vehicle depart="0.1" departLane="4" departPos="3.1434927849505527" departSpeed="0.0" id="527" type="passenger">
		<route edges="20 16"/>
	</vehicle>
</routes>
