<!-- generated on 2020-12-18 16:05:25.319277 by ipykernel_launcher.py v1_2_0+5214-53edc58fcd
-->
<edges>
	<edge from="1" function="normal" id="6116" length="38.580182305884264" numLanes="1" priority="1" speed="36.11111111111111" spreadType="center" to="2">
		<lane allow="moped bicycle pedestrian custom1 trailer evehicle rail_urban ship private vip custom2 authority delivery rail_electric taxi tram army hov coach motorcycle passenger rail emergency" index="0" length="38.580182305884264" shape="52.87905000000001,-21.886899999999997 48.42274999999999,-22.8983 32.23425,-27.2202 25.803,-28.703699999999998 20.295099999999998,-29.6241 15.246500000000001,-30.09655" speed="36.11111111111111" width="2.499698111772699"/>
	</edge>
	<edge from="3" function="normal" id="6117" length="38.969390430178485" numLanes="1" priority="1" speed="36.11111111111111" spreadType="center" to="4">
		<lane allow="moped bicycle pedestrian custom1 trailer evehicle rail_urban ship private vip custom2 authority delivery rail_electric taxi tram army hov coach motorcycle passenger rail emergency" index="0" length="38.969390430178485" shape="15.3945,-32.59065 20.549750000000003,-32.1113 26.16805,-31.17955 32.69185,-29.6832 48.95755,-25.34095 53.41245,-24.329250000000002" speed="36.11111111111111" width="2.497423522352586"/>
	</edge>
	<edge from="5" function="normal" id="6119" length="54.37868805753265" numLanes="2" priority="1" speed="36.11111111111111" spreadType="center" to="6">
		<lane allow="moped bicycle pedestrian custom1 trailer evehicle rail_urban ship private truck vip custom2 authority delivery rail_electric taxi tram army hov coach motorcycle passenger bus rail emergency" index="0" length="54.37868805753265" shape="-11.6094,-9.42375 11.4335,4.99965 34.48415,19.42805" speed="36.11111111111111" width="2.499442539847635"/>
		<lane allow="moped bicycle pedestrian custom1 trailer evehicle rail_urban ship private truck vip custom2 authority delivery rail_electric taxi tram army hov coach motorcycle passenger bus rail emergency" index="1" length="54.37868805753265" shape="-12.9525,-7.3155 10.10575,7.11795 33.159949999999995,21.54855" speed="36.11111111111111" width="2.5000374117200725"/>
	</edge>
	<edge from="7" function="normal" id="6120" length="0.796317384221715" numLanes="1" priority="1" speed="36.11111111111111" spreadType="center" to="8">
		<lane allow="moped bicycle pedestrian custom1 trailer evehicle rail_urban ship private vip custom2 authority delivery rail_electric taxi tram army hov coach motorcycle passenger rail emergency" index="0" length="0.796317384221715" shape="6.53085,-38.45975 6.52775,-38.87295 6.52565,-39.25605" speed="36.11111111111111" width="2.4990641968544947"/>
	</edge>
	<edge from="9" function="normal" id="6121" length="0.7991076336347045" numLanes="1" priority="1" speed="36.11111111111111" spreadType="center" to="10">
		<lane allow="moped bicycle pedestrian custom1 trailer evehicle rail_urban ship private vip custom2 authority delivery rail_electric taxi tram army hov coach motorcycle passenger rail emergency" index="0" length="0.7991076336347045" shape="9.0256,-39.26975 9.0277,-38.88665 9.02895,-38.47065" speed="36.11111111111111" width="2.498822782831947"/>
	</edge>
	<edge from="11" function="normal" id="6123" length="14.51983742717242" numLanes="2" priority="1" speed="36.11111111111111" spreadType="center" to="12">
		<lane allow="moped bicycle pedestrian custom1 trailer evehicle rail_urban ship private vip custom2 authority delivery rail_electric taxi tram army hov coach motorcycle passenger rail emergency" index="0" length="14.51983742717242" shape="-37.09315,-24.599 -30.6078,-21.146949999999997 -24.3033,-17.451" speed="36.11111111111111" width="2.497539541228527"/>
		<lane allow="moped bicycle pedestrian custom1 trailer evehicle rail_urban ship private vip custom2 authority delivery rail_electric taxi tram army hov coach motorcycle passenger rail emergency" index="1" length="14.51983742717242" shape="-38.25775,-22.386850000000003 -31.85425,-18.97995 -25.585050000000003,-15.30595" speed="36.11111111111111" width="2.500033283778438"/>
	</edge>
	<edge from="13" function="normal" id="6124" length="17.559137499361402" numLanes="1" priority="1" speed="36.11111111111111" spreadType="center" to="14">
		<lane allow="moped bicycle pedestrian custom1 trailer evehicle rail_urban ship private vip custom2 authority delivery rail_electric taxi tram army hov coach motorcycle passenger rail emergency" index="0" length="17.559137499361402" shape="2.1561500000000002,-26.936500000000002 -1.92375,-24.979300000000002 -5.4114,-22.99155 -8.297550000000001,-20.989800000000002 -12.5394,-17.4773" speed="36.11111111111111" width="2.4956301729222607"/>
	</edge>
	<edge from="15" function="normal" id="6125" length="18.286364760136074" numLanes="1" priority="1" speed="36.11111111111111" spreadType="center" to="16">
		<lane allow="moped bicycle pedestrian custom1 trailer evehicle rail_urban ship private vip custom2 authority delivery rail_electric taxi tram army hov coach motorcycle passenger rail emergency" index="0" length="18.286364760136074" shape="-14.1953,-19.347749999999998 -9.788250000000001,-22.995449999999998 -6.7527,-25.099899999999998 -3.1068499999999997,-27.18105 1.10625,-29.20455" speed="36.11111111111111" width="2.49845030769075"/>
	</edge>
	<edge from="12" function="normal" id="6131" length="14.94752861124363" numLanes="2" priority="1" speed="36.11111111111111" spreadType="center" to="5">
		<lane allow="moped bicycle pedestrian custom1 trailer evehicle rail_urban ship private truck vip custom2 authority delivery rail_electric taxi tram army hov coach motorcycle passenger bus rail emergency" index="0" length="14.94752861124363" shape="-24.3033,-17.451 -17.94475,-13.4307 -11.6094,-9.42375" speed="36.11111111111111" width="2.497539541228527"/>
		<lane allow="moped bicycle pedestrian custom1 trailer evehicle rail_urban ship private truck vip custom2 authority delivery rail_electric taxi tram army hov coach motorcycle passenger bus rail emergency" index="1" length="14.94752861124363" shape="-25.585050000000003,-15.30595 -19.2723,-11.3124 -12.9525,-7.3155" speed="36.11111111111111" width="2.499977759901076"/>
	</edge>
	<edge from="10" function="normal" id="6127" length="9.773183706094404" numLanes="1" priority="1" speed="36.11111111111111" spreadType="center" to="3">
		<lane allow="moped bicycle pedestrian custom1 trailer evehicle rail_urban ship private vip custom2 authority delivery rail_electric taxi tram army hov coach motorcycle passenger rail emergency" index="0" length="9.773183706094404" shape="9.02895,-38.47065 9.10775,-37.41735 9.34175,-36.35485 9.768899999999999,-35.355199999999996 10.41045,-34.47815 11.2381,-33.7734 12.19745,-33.260400000000004 13.229,-32.9135 14.297,-32.700900000000004 15.3945,-32.59065" speed="36.11111111111111" width="2.497423522352586"/>
	</edge>
	<edge from="12" function="normal" id="6128" length="11.100052348348125" numLanes="1" priority="1" speed="36.11111111111111" spreadType="center" to="15">
		<lane allow="moped bicycle pedestrian custom1 trailer evehicle rail_urban ship private vip custom2 authority delivery rail_electric taxi tram army hov coach motorcycle passenger rail emergency" index="0" length="11.100052348348125" shape="-24.3033,-17.451 -22.7928,-16.734299999999998 -21.167050000000003,-16.3939 -19.50825,-16.4789 -17.9118,-16.9426 -16.426,-17.69135 -14.62305,-18.9844 -14.1953,-19.347749999999998" speed="36.11111111111111" width="2.497539541228527"/>
	</edge>
	<edge from="16" function="normal" id="6129" length="11.417658157722421" numLanes="1" priority="1" speed="36.11111111111111" spreadType="center" to="7">
		<lane allow="moped bicycle pedestrian custom1 trailer evehicle rail_urban ship private vip custom2 authority delivery rail_electric taxi tram army hov coach motorcycle passenger rail emergency" index="0" length="11.417658157722421" shape="1.10625,-29.20455 2.0368500000000003,-29.6848 2.9082,-30.25305 3.7091,-30.9165 4.4211,-31.6744 5.03245,-32.51555 5.53435,-33.4263 5.924250000000001,-34.3905 6.209,-35.390950000000004 6.39715,-36.41415 6.53085,-38.45975" speed="36.11111111111111" width="2.49845030769075"/>
	</edge>
	<edge from="16" function="normal" id="6130" length="14.817936870227268" numLanes="1" priority="1" speed="36.11111111111111" spreadType="center" to="3">
		<lane allow="moped bicycle pedestrian custom1 trailer evehicle rail_urban ship private vip custom2 authority delivery rail_electric taxi tram army hov coach motorcycle passenger rail emergency" index="0" length="14.817936870227268" shape="1.10625,-29.20455 4.2651,-30.5213 7.508900000000001,-31.5893 10.84225,-32.3279 13.10465,-32.5806 15.3945,-32.59065" speed="36.11111111111111" width="2.497423522352586"/>
	</edge>
	<edge from="2" function="normal" id="6132" length="13.587432532093331" numLanes="1" priority="1" speed="36.11111111111111" spreadType="center" to="13">
		<lane allow="moped bicycle pedestrian custom1 trailer evehicle rail_urban ship private vip custom2 authority delivery rail_electric taxi tram army hov coach motorcycle passenger rail emergency" index="0" length="13.587432532093331" shape="15.246500000000001,-30.09655 13.203800000000001,-30.084200000000003 11.166699999999999,-29.8507 8.096400000000001,-29.16005 5.0906,-28.162 2.1561500000000002,-26.936500000000002" speed="36.11111111111111" width="2.49756881787069"/>
	</edge>
	<edge from="14" function="normal" id="6133" length="10.074569632572542" numLanes="1" priority="1" speed="36.11111111111111" spreadType="center" to="5">
		<lane allow="moped bicycle pedestrian custom1 trailer evehicle rail_urban ship private vip custom2 authority delivery rail_electric taxi tram army hov coach motorcycle passenger rail emergency" index="0" length="10.074569632572542" shape="-12.5394,-17.4773 -13.92005,-15.99635 -14.567699999999999,-14.82395 -14.7467,-14.17735 -14.79255,-13.5083 -14.686350000000001,-12.8463 -14.45095,-12.218399999999999 -13.6916,-11.115400000000001 -12.709,-10.20125 -11.6094,-9.42375" speed="36.11111111111111" width="2.4956301729222607"/>
	</edge>
	<edge from="2" function="normal" id="6134" length="13.575987972513058" numLanes="1" priority="1" speed="36.11111111111111" spreadType="center" to="7">
		<lane allow="moped bicycle pedestrian custom1 trailer evehicle rail_urban ship private vip custom2 authority delivery rail_electric taxi tram army hov coach motorcycle passenger rail emergency" index="0" length="13.575987972513058" shape="15.246500000000001,-30.09655 13.8228,-30.24175 12.404599999999999,-30.5345 10.996849999999998,-31.02715 9.650649999999999,-31.778350000000003 8.46605,-32.82485 7.55385,-34.1152 6.9542,-35.54845 6.6355,-37.0195 6.53085,-38.45975" speed="36.11111111111111" width="2.4990641968544947"/>
	</edge>
	<edge from="10" function="normal" id="6135" length="14.27847756390014" numLanes="1" priority="1" speed="36.11111111111111" spreadType="center" to="13">
		<lane allow="moped bicycle pedestrian custom1 trailer evehicle rail_urban ship private vip custom2 authority delivery rail_electric taxi tram army hov coach motorcycle passenger rail emergency" index="0" length="14.27847756390014" shape="9.02895,-38.47065 8.86495,-36.00165 8.6251,-34.717349999999996 8.261949999999999,-33.4698 7.760949999999999,-32.256 7.1134,-31.10105 6.32555,-30.0337 5.41195,-29.073900000000002 4.3934,-28.23685 3.2997,-27.52695 2.1561500000000002,-26.936500000000002" speed="36.11111111111111" width="2.498822782831947"/>
	</edge>
</edges>
