<!-- generated on 2020-12-18 16:05:25.398842 by ipykernel_launcher.py v1_2_0+5214-53edc58fcd
-->
<nodes>
	<node id="1" type="from" x="52.87905000000001" y="-21.886899999999997"/>
	<node id="2" type="to" x="15.246500000000001" y="-30.09655"/>
	<node id="3" type="from" x="15.3945" y="-32.59065"/>
	<node id="4" type="to" x="53.41245" y="-24.329250000000002"/>
	<node id="5" type="from" x="-12.28095" y="-8.369625"/>
	<node id="6" type="to" x="33.82205" y="20.4883"/>
	<node id="7" type="from" x="6.53085" y="-38.45975"/>
	<node id="8" type="to" x="6.52565" y="-39.25605"/>
	<node id="9" type="from" x="9.0256" y="-39.26975"/>
	<node id="10" type="to" x="9.02895" y="-38.47065"/>
	<node id="11" type="from" x="-37.67545" y="-23.492925"/>
	<node id="12" type="to" x="-24.944175" y="-16.378475"/>
	<node id="13" type="from" x="2.1561500000000002" y="-26.936500000000002"/>
	<node id="14" type="to" x="-12.5394" y="-17.4773"/>
	<node id="15" type="from" x="-14.1953" y="-19.347749999999998"/>
	<node id="16" type="to" x="1.10625" y="-29.20455"/>
</nodes>
