<routes>
	<vehicle depart="0.1" departLane="0" departPos="20.67019899876004" departSpeed="7.4305414" id="333" type="bicycle">
		<route edges="66810"/>
	</vehicle>
	<vehicle depart="0.1" departLane="0" departPos="35.73852751076128" departSpeed="0.45708167" id="335" type="bus">
		<route edges="66809 66650"/>
	</vehicle>
	<vehicle depart="0.1" departLane="0" departPos="4.624733404381018" departSpeed="1.5348529" id="31" type="passenger">
		<route edges=":37_3 66646"/>
	</vehicle>
	<vehicle depart="0.1" departLane="0" departPos="16.233636606049018" departSpeed="0.0" id="34" type="passenger">
		<route edges=":37_0 66646"/>
	</vehicle>
	<vehicle depart="0.1" departLane="0" departPos="37.72358302787494" departSpeed="3.9494778" id="38" type="passenger">
		<route edges="66649 66646 66643"/>
	</vehicle>
	<vehicle depart="0.1" departLane="0" departPos="60.57933820102089" departSpeed="1.1627552" id="321" type="passenger">
		<route edges="66809 66650"/>
	</vehicle>
	<vehicle depart="0.1" departLane="0" departPos="44.81528841963089" departSpeed="0.71543523" id="326" type="passenger">
		<route edges="66809 66650"/>
	</vehicle>
	<vehicle depart="0.1" departLane="0" departPos="52.67759601283504" departSpeed="0.096511719" id="331" type="passenger">
		<route edges="66809 66650"/>
	</vehicle>
	<vehicle depart="0.1" departLane="0" departPos="29.885914477504613" departSpeed="6.1560379" id="336" type="passenger">
		<route edges=":39_2 66068 66647 66810"/>
	</vehicle>
	<vehicle depart="0.1" departLane="0" departPos="26.24932067863126" departSpeed="0.0" id="322" type="truck">
		<route edges=":37_0 66646"/>
	</vehicle>
</routes>
