<routes>
	<vehicle depart="0.1" departLane="0" departPos="4.589474229810563" departSpeed="0.03342699" id="31" type="passenger">
		<route edges=":38_1 10144"/>
	</vehicle>
	<vehicle depart="0.1" departLane="0" departPos="5.8245245003255555" departSpeed="1.2134362" id="37" type="passenger">
		<route edges="10165 10076"/>
	</vehicle>
	<vehicle depart="0.1" departLane="0" departPos="16.934934362456527" departSpeed="0.55877735" id="38" type="passenger">
		<route edges=":38_3 10075"/>
	</vehicle>
	<vehicle depart="0.1" departLane="0" departPos="14.87800467193563" departSpeed="0.56465703" id="316" type="passenger">
		<route edges="10165 10076"/>
	</vehicle>
	<vehicle depart="0.1" departLane="0" departPos="8.0472304838141" departSpeed="1.0086543" id="321" type="passenger">
		<route edges="10078 10144"/>
	</vehicle>
	<vehicle depart="0.1" departLane="0" departPos="19.431456989012734" departSpeed="8.3453527" id="344" type="passenger">
		<route edges=":38_4 10144"/>
	</vehicle>
	<vehicle depart="0.1" departLane="0" departPos="4.723051412712325" departSpeed="6.9171957" id="346" type="passenger">
		<route edges=":38_4 10144"/>
	</vehicle>
	<vehicle depart="0.1" departLane="0" departPos="43.35091842970964" departSpeed="12.181456" id="351" type="passenger">
		<route edges="10073 10076"/>
	</vehicle>
	<vehicle depart="0.1" departLane="0" departPos="6.3460193215126255" departSpeed="0.26798102" id="30" type="truck">
		<route edges=":39_1 10072"/>
	</vehicle>
</routes>
