<!-- generated on Tue Feb  9 22:06:31 2021 by Eclipse SUMO netconvert Version 1.8.0
<configuration xmlns:xsi="http://www.w3.org/2001/XMLSchema-instance" xsi:noNamespaceSchemaLocation="http://sumo.dlr.de/xsd/netconvertConfiguration.xsd">

    <input>
        <node-files value="./converted_scenarios/scenario-factory/BEL_Nivelles-9_2_I-1-1/BEL_Nivelles-9_2_I-1-1.nod.xml"/>
        <edge-files value="./converted_scenarios/scenario-factory/BEL_Nivelles-9_2_I-1-1/BEL_Nivelles-9_2_I-1-1.edg.xml"/>
        <connection-files value="./converted_scenarios/scenario-factory/BEL_Nivelles-9_2_I-1-1/BEL_Nivelles-9_2_I-1-1.con.xml"/>
        <tllogic-files value="./converted_scenarios/scenario-factory/BEL_Nivelles-9_2_I-1-1/BEL_Nivelles-9_2_I-1-1.tll.xml"/>
        <type-files value="/home/zen/commonroad-interactive-benchmarks/install/commonroad-map-tool/crmapconverter/sumo_map/templates/DEU.typ.xml"/>
    </input>

    <output>
        <output-file value="./converted_scenarios/scenario-factory/BEL_Nivelles-9_2_I-1-1/BEL_Nivelles-9_2_I-1-1.net.xml"/>
    </output>

    <processing>
        <geometry.remove.keep-edges.explicit value="true"/>
        <geometry.avoid-overlap value="true"/>
        <offset.disable-normalization value="true"/>
    </processing>

    <junctions>
        <no-turnarounds value="true"/>
        <junctions.internal-link-detail value="20"/>
    </junctions>

    <report>
        <aggregate-warnings value="5"/>
    </report>

    <random_number>
        <seed value="1234"/>
    </random_number>

</configuration>
--><net xmlns:xsi="http://www.w3.org/2001/XMLSchema-instance" version="1.6" junctionCornerDetail="5" junctionLinkDetail="20" limitTurnSpeed="5.50" xsi:noNamespaceSchemaLocation="http://sumo.dlr.de/xsd/net_file.xsd">

    <location netOffset="0.00,0.00" convBoundary="765.02,-993.90,950.31,-832.07" origBoundary="758.98,-993.90,950.31,-832.07" projParameter="!"/>

    <type id="highway.bridleway" priority="1" speed="2.78" allow="pedestrian" oneway="1" width="2.00"/>
    <type id="highway.bus_guideway" priority="1" speed="27.78" allow="bus" oneway="1"/>
    <type id="highway.cycleway" priority="1" speed="8.33" allow="bicycle" oneway="0" width="1.00"/>
    <type id="highway.footway" priority="1" speed="2.78" allow="pedestrian" oneway="1" width="2.00"/>
    <type id="highway.ford" priority="1" speed="2.78" allow="army" oneway="0"/>
    <type id="highway.living_street" priority="2" speed="2.78" disallow="tram rail_urban rail rail_electric rail_fast ship" oneway="0"/>
    <type id="highway.motorway" priority="14" speed="39.44" allow="private emergency authority army vip passenger hov taxi bus coach delivery truck trailer motorcycle evehicle custom1 custom2" oneway="1"/>
    <type id="highway.motorway_link" priority="9" speed="22.22" allow="private emergency authority army vip passenger hov taxi bus coach delivery truck trailer motorcycle evehicle custom1 custom2" oneway="1"/>
    <type id="highway.path" priority="1" speed="2.78" allow="pedestrian bicycle" oneway="0" width="2.00"/>
    <type id="highway.pedestrian" priority="1" speed="2.78" allow="pedestrian" oneway="1" width="2.00"/>
    <type id="highway.primary" priority="12" speed="27.78" disallow="pedestrian tram rail_urban rail rail_electric rail_fast ship" oneway="0"/>
    <type id="highway.primary_link" priority="7" speed="22.22" disallow="pedestrian tram rail_urban rail rail_electric rail_fast ship" oneway="0"/>
    <type id="highway.raceway" priority="15" speed="83.33" allow="vip" oneway="0"/>
    <type id="highway.residential" priority="3" speed="13.89" disallow="pedestrian tram rail_urban rail rail_electric rail_fast ship" oneway="0"/>
    <type id="highway.secondary" priority="11" speed="27.78" disallow="pedestrian tram rail_urban rail rail_electric rail_fast ship" oneway="0"/>
    <type id="highway.secondary_link" priority="6" speed="22.22" disallow="pedestrian tram rail_urban rail rail_electric rail_fast ship" oneway="0"/>
    <type id="highway.service" priority="1" speed="5.56" allow="pedestrian delivery bicycle" oneway="0"/>
    <type id="highway.stairs" priority="1" speed="1.39" allow="pedestrian" oneway="1" width="2.00"/>
    <type id="highway.step" priority="1" speed="1.39" allow="pedestrian" oneway="1" width="2.00"/>
    <type id="highway.steps" priority="1" speed="1.39" allow="pedestrian" oneway="1" width="2.00"/>
    <type id="highway.tertiary" priority="10" speed="22.22" disallow="pedestrian tram rail_urban rail rail_electric rail_fast ship" oneway="0"/>
    <type id="highway.tertiary_link" priority="5" speed="22.22" disallow="pedestrian tram rail_urban rail rail_electric rail_fast ship" oneway="0"/>
    <type id="highway.track" priority="1" speed="5.56" allow="pedestrian motorcycle moped bicycle" oneway="0"/>
    <type id="highway.trunk" priority="13" speed="27.78" disallow="pedestrian bicycle tram rail_urban rail rail_electric rail_fast ship" oneway="0"/>
    <type id="highway.trunk_link" priority="8" speed="22.22" disallow="pedestrian bicycle tram rail_urban rail rail_electric rail_fast ship" oneway="0"/>
    <type id="highway.unclassified" priority="4" speed="13.89" disallow="pedestrian tram rail_urban rail rail_electric rail_fast ship" oneway="0"/>
    <type id="highway.unsurfaced" priority="1" speed="8.33" disallow="tram rail_urban rail rail_electric rail_fast ship" oneway="0"/>
    <type id="railway.highspeed" priority="21" speed="69.44" allow="rail_fast" oneway="1"/>
    <type id="railway.light_rail" priority="19" speed="27.78" allow="rail_urban" oneway="1"/>
    <type id="railway.preserved" priority="16" speed="27.78" allow="rail" oneway="1"/>
    <type id="railway.rail" priority="20" speed="44.44" allow="rail" oneway="1"/>
    <type id="railway.subway" priority="18" speed="27.78" allow="rail_urban" oneway="1"/>
    <type id="railway.tram" priority="17" speed="13.89" allow="tram" oneway="1"/>

    <edge id=":37_0" function="internal">
        <lane id=":37_0_0" index="0" disallow="pedestrian tram rail_urban rail rail_electric rail_fast ship" speed="9.41" length="19.71" width="3.50" shape="881.68,-875.37 880.74,-875.78 879.71,-875.89 878.69,-875.72 877.72,-875.35 876.82,-874.84 875.97,-874.25 875.16,-873.59 873.67,-872.15 872.29,-870.60 870.36,-868.15 868.56,-865.60 867.42,-863.87"/>
    </edge>
    <edge id=":37_1" function="internal">
        <lane id=":37_1_0" index="0" disallow="pedestrian tram rail_urban rail rail_electric rail_fast ship" speed="36.11" length="26.88" width="3.50" shape="881.68,-875.37 870.40,-882.65 859.09,-889.94"/>
    </edge>
    <edge id=":37_2" function="internal">
        <lane id=":37_2_0" index="0" disallow="pedestrian tram rail_urban rail rail_electric rail_fast ship" speed="36.11" length="26.75" width="3.50" shape="861.00,-892.87 872.29,-885.59 883.48,-878.37"/>
    </edge>
    <edge id=":37_3" function="internal">
        <lane id=":37_3_0" index="0" disallow="pedestrian tram rail_urban rail rail_electric rail_fast ship" speed="12.18" length="34.03" width="3.50" shape="861.00,-892.87 864.20,-890.55 866.15,-888.81 867.92,-886.88 869.44,-884.75 870.08,-883.61 870.63,-882.43 871.08,-881.20 871.43,-879.94 871.66,-878.65 871.78,-877.35 871.79,-876.04 871.50,-873.44 870.86,-870.90 869.92,-868.46 868.76,-866.12 867.42,-863.87"/>
    </edge>
    <edge id=":37_4" function="internal">
        <lane id=":37_4_0" index="0" disallow="pedestrian tram rail_urban rail rail_electric rail_fast ship" speed="11.18" length="28.49" width="3.50" shape="864.47,-865.75 865.64,-867.71 866.64,-869.73 867.43,-871.80 867.97,-873.90 868.21,-876.06 868.20,-877.09 868.10,-878.13 867.91,-879.16 867.63,-880.17 867.27,-881.16 866.82,-882.12 866.31,-883.02 865.03,-884.81 863.54,-886.43 861.88,-887.91 859.09,-889.94"/>
    </edge>
    <edge id=":37_5" function="internal">
        <lane id=":37_5_0" index="0" disallow="pedestrian tram rail_urban rail rail_electric rail_fast ship" speed="10.55" length="25.01" width="3.50" shape="864.47,-865.75 865.82,-867.79 867.95,-870.73 870.28,-873.56 872.04,-875.36 873.96,-877.00 875.07,-877.75 876.26,-878.41 877.57,-878.93 878.99,-879.25 880.51,-879.30 882.05,-879.01 883.48,-878.37"/>
    </edge>
    <edge id=":38_0" function="internal">
        <lane id=":38_0_0" index="0" disallow="pedestrian tram rail_urban rail rail_electric rail_fast ship" speed="36.11" length="30.44" width="3.50" shape="847.54,-897.47 834.83,-905.84 822.12,-914.21"/>
    </edge>
    <edge id=":38_1" function="internal">
        <lane id=":38_1_0" index="0" disallow="pedestrian tram rail_urban rail rail_electric rail_fast ship" speed="12.54" length="33.75" width="3.50" shape="847.54,-897.47 845.47,-898.94 843.52,-900.59 841.72,-902.47 840.15,-904.57 838.89,-906.87 838.37,-908.14 837.97,-909.42 837.67,-910.76 837.40,-913.37 837.50,-916.00 837.92,-918.57 838.61,-921.04 839.51,-923.43 841.14,-926.80"/>
    </edge>
    <edge id=":38_2" function="internal">
        <lane id=":38_2_0" index="0" disallow="pedestrian tram rail_urban rail rail_electric rail_fast ship" speed="11.56" length="28.52" width="3.50" shape="844.23,-925.17 842.79,-922.19 842.01,-920.14 841.42,-918.03 841.05,-915.87 840.95,-913.68 841.17,-911.50 841.41,-910.43 841.73,-909.38 842.14,-908.36 843.18,-906.43 844.48,-904.67 845.99,-903.08 847.67,-901.67 849.45,-900.40"/>
    </edge>
    <edge id=":38_3" function="internal">
        <lane id=":38_3_0" index="0" disallow="pedestrian tram rail_urban rail rail_electric rail_fast ship" speed="10.77" length="28.54" width="3.50" shape="844.23,-925.16 842.15,-921.63 839.78,-918.32 837.98,-916.29 835.95,-914.48 834.84,-913.70 833.66,-913.02 832.42,-912.48 831.12,-912.10 829.77,-911.89 828.42,-911.88 827.07,-912.05 825.75,-912.39 824.49,-912.88 823.28,-913.50 822.12,-914.21"/>
    </edge>
    <edge id=":38_4" function="internal">
        <lane id=":38_4_0" index="0" disallow="pedestrian tram rail_urban rail rail_electric rail_fast ship" speed="9.64" length="22.63" width="3.50" shape="824.04,-917.13 824.96,-916.57 825.89,-916.11 826.83,-915.76 827.79,-915.54 828.76,-915.45 829.72,-915.50 830.68,-915.70 831.62,-916.03 832.54,-916.49 833.43,-917.05 834.27,-917.68 835.90,-919.21 837.37,-920.93 839.37,-923.78 841.14,-926.80"/>
    </edge>
    <edge id=":38_5" function="internal">
        <lane id=":38_5_0" index="0" disallow="pedestrian tram rail_urban rail rail_electric rail_fast ship" speed="36.11" length="30.42" width="3.50" shape="824.04,-917.13 836.76,-908.76 849.45,-900.40"/>
    </edge>
    <edge id=":39_0" function="internal">
        <lane id=":39_0_0" index="0" disallow="pedestrian tram rail_urban rail rail_electric rail_fast ship" speed="9.76" length="21.85" width="3.50" shape="821.91,-914.35 821.01,-914.87 820.05,-915.28 819.04,-915.53 818.01,-915.63 816.97,-915.56 815.96,-915.33 814.98,-914.98 814.04,-914.52 813.15,-913.98 812.31,-913.38 810.73,-912.02 809.29,-910.52 807.31,-908.10 805.51,-905.55 804.94,-904.68"/>
    </edge>
    <edge id=":39_1" function="internal">
        <lane id=":39_1_0" index="0" disallow="pedestrian tram rail_urban rail rail_electric rail_fast ship" speed="36.11" length="30.42" width="3.50" shape="821.91,-914.35 809.20,-922.68 796.47,-931.02"/>
    </edge>
    <edge id=":39_2" function="internal">
        <lane id=":39_2_0" index="0" disallow="pedestrian tram rail_urban rail rail_electric rail_fast ship" speed="36.11" length="30.43" width="3.50" shape="798.37,-933.96 811.13,-925.60 823.82,-917.28"/>
    </edge>
    <edge id=":39_3" function="internal">
        <lane id=":39_3_0" index="0" disallow="pedestrian tram rail_urban rail rail_electric rail_fast ship" speed="12.22" length="34.40" width="3.50" shape="798.37,-933.96 801.61,-931.62 803.59,-929.86 805.38,-927.92 806.93,-925.78 807.58,-924.63 808.14,-923.43 808.60,-922.19 808.96,-920.92 809.20,-919.62 809.32,-918.30 809.33,-916.98 809.05,-914.36 808.40,-911.79 807.46,-909.32 806.29,-906.95 804.94,-904.68"/>
    </edge>
    <edge id=":39_4" function="internal">
        <lane id=":39_4_0" index="0" disallow="pedestrian tram rail_urban rail rail_electric rail_fast ship" speed="11.23" length="28.84" width="3.50" shape="801.99,-906.56 803.17,-908.55 804.18,-910.59 804.97,-912.68 805.52,-914.81 805.75,-917.00 805.73,-918.03 805.63,-919.09 805.44,-920.13 805.16,-921.16 804.78,-922.15 804.32,-923.12 803.81,-924.04 802.51,-925.85 800.99,-927.48 799.30,-928.98 796.47,-931.02"/>
    </edge>
    <edge id=":39_5" function="internal">
        <lane id=":39_5_0" index="0" disallow="pedestrian tram rail_urban rail rail_electric rail_fast ship" speed="10.88" length="27.40" width="3.50" shape="801.99,-906.56 802.67,-907.60 804.79,-910.56 807.16,-913.37 808.96,-915.13 810.93,-916.71 812.05,-917.43 813.23,-918.05 814.48,-918.56 815.82,-918.93 817.21,-919.13 818.63,-919.13 820.03,-918.92 821.39,-918.52 822.66,-917.96 823.82,-917.28"/>
    </edge>
    <edge id=":40_0" function="internal">
        <lane id=":40_0_0" index="0" disallow="pedestrian tram rail_urban rail rail_electric rail_fast ship" speed="36.11" length="26.99" width="3.49" shape="904.59,-860.62 882.78,-874.68 881.90,-875.24"/>
    </edge>
    <edge id=":40_1" function="internal">
        <lane id=":40_1_0" index="0" disallow="pedestrian tram rail_urban rail rail_electric rail_fast ship" speed="12.36" length="33.69" width="3.50" shape="904.58,-860.62 902.53,-862.07 900.57,-863.69 898.76,-865.51 897.14,-867.55 895.81,-869.80 895.26,-871.05 894.81,-872.31 894.48,-873.61 894.25,-874.93 894.14,-876.29 894.23,-878.90 894.67,-881.48 895.41,-883.95 896.39,-886.32 898.14,-889.61"/>
    </edge>
    <edge id=":40_2" function="internal">
        <lane id=":40_2_0" index="0" disallow="pedestrian tram rail_urban rail rail_electric rail_fast ship" speed="11.36" length="28.31" width="3.50" shape="901.18,-887.86 899.62,-884.95 898.79,-882.94 898.16,-880.86 897.79,-878.71 897.72,-876.54 897.81,-875.46 897.99,-874.39 898.26,-873.33 898.62,-872.30 899.06,-871.31 900.16,-869.44 901.51,-867.73 903.04,-866.19 904.72,-864.80 906.50,-863.56"/>
    </edge>
    <edge id=":40_3" function="internal">
        <lane id=":40_3_0" index="0" disallow="pedestrian tram rail_urban rail rail_electric rail_fast ship" speed="10.46" length="25.62" width="3.49" shape="901.18,-887.86 898.99,-884.42 896.60,-881.16 894.85,-879.11 892.93,-877.23 891.88,-876.38 890.78,-875.61 889.60,-874.95 888.36,-874.44 887.05,-874.12 885.71,-874.03 884.38,-874.20 883.10,-874.61 881.90,-875.24"/>
    </edge>
    <edge id=":40_4" function="internal">
        <lane id=":40_4_0" index="0" disallow="pedestrian tram rail_urban rail rail_electric rail_fast ship" speed="9.33" length="20.05" width="3.50" shape="883.71,-878.23 884.47,-877.82 885.26,-877.59 886.11,-877.54 886.98,-877.70 887.87,-878.01 888.75,-878.47 889.61,-879.04 890.44,-879.70 891.25,-880.42 892.81,-882.06 894.25,-883.82 896.28,-886.67 898.14,-889.61"/>
    </edge>
    <edge id=":40_5" function="internal">
        <lane id=":40_5_0" index="0" disallow="pedestrian tram rail_urban rail rail_electric rail_fast ship" speed="36.11" length="27.10" width="3.50" shape="883.71,-878.23 884.65,-877.64 906.50,-863.56"/>
    </edge>

    <edge id="10072" from="39" to="31" priority="3" type="highway.residential" spreadType="center" length="70.00" shape="806.47,-916.99 765.02,-981.02">
        <lane id="10072_0" index="0" disallow="pedestrian tram rail_urban rail rail_electric rail_fast ship" speed="36.11" length="70.00" width="3.50" customShape="1" shape="796.47,-931.02 772.09,-946.72 768.94,-948.52 766.74,-949.90 765.19,-951.27 763.85,-952.85 762.42,-955.01 760.25,-959.14 759.51,-961.08 759.16,-962.59 758.98,-964.65 759.15,-967.24 759.68,-969.77 760.62,-972.74 761.87,-975.58 763.92,-979.19 765.02,-981.02"/>
    </edge>
    <edge id="10073" from="36" to="39" priority="3" type="highway.residential" spreadType="center" length="70.00" shape="770.53,-983.95 809.44,-918.83">
        <lane id="10073_0" index="0" disallow="pedestrian tram rail_urban rail rail_electric rail_fast ship" speed="36.11" length="70.00" width="3.50" customShape="1" shape="770.53,-983.95 769.69,-982.16 767.62,-978.54 765.59,-975.08 764.33,-972.51 763.36,-969.83 762.78,-967.54 762.51,-965.29 762.57,-963.53 762.80,-962.32 763.40,-960.65 765.44,-956.78 766.72,-954.85 767.87,-953.53 769.28,-952.40 771.38,-951.18 774.43,-949.38 798.40,-933.94"/>
    </edge>
    <edge id="10075" from="38" to="39" priority="3" type="highway.residential" spreadType="center" length="0.29" shape="837.83,-911.80 807.57,-916.26">
        <lane id="10075_0" index="0" disallow="pedestrian tram rail_urban rail rail_electric rail_fast ship" speed="36.11" length="0.29" width="3.50" customShape="1" shape="822.12,-914.21 822.01,-914.28 821.88,-914.37"/>
    </edge>
    <edge id="10076" from="39" to="38" priority="3" type="highway.residential" spreadType="center" length="0.30" shape="808.08,-919.71 838.34,-915.26">
        <lane id="10076_0" index="0" disallow="pedestrian tram rail_urban rail rail_electric rail_fast ship" speed="36.11" length="0.30" width="3.50" customShape="1" shape="823.82,-917.28 824.07,-917.11"/>
    </edge>
    <edge id="10078" from="37" to="38" priority="3" type="highway.residential" spreadType="center" length="13.81" shape="868.21,-876.54 836.73,-912.42">
        <lane id="10078_0" index="0" disallow="pedestrian tram rail_urban rail rail_electric rail_fast ship" speed="36.11" length="13.81" width="3.50" customShape="1" shape="859.09,-889.94 853.33,-893.70 847.52,-897.48"/>
    </edge>
    <edge id="10079" from="38" to="37" priority="3" type="highway.residential" spreadType="center" length="13.81" shape="839.35,-914.73 870.84,-878.85">
        <lane id="10079_0" index="0" disallow="pedestrian tram rail_urban rail rail_electric rail_fast ship" speed="36.11" length="13.81" width="3.50" customShape="1" shape="849.45,-900.40 855.24,-896.63 861.02,-892.86"/>
    </edge>
    <edge id="10081" from="40" to="37" priority="3" type="highway.residential" spreadType="center" length="0.30" shape="895.99,-874.10 869.41,-875.95">
        <lane id="10081_0" index="0" disallow="pedestrian tram rail_urban rail rail_electric rail_fast ship" speed="36.11" length="0.30" width="3.49" customShape="1" shape="881.90,-875.24 881.80,-875.30 881.65,-875.40"/>
    </edge>
    <edge id="10082" from="37" to="40" priority="3" type="highway.residential" spreadType="center" length="0.33" shape="869.65,-879.44 896.23,-877.58">
        <lane id="10082_0" index="0" disallow="pedestrian tram rail_urban rail rail_electric rail_fast ship" speed="36.11" length="0.33" width="3.50" customShape="1" shape="883.48,-878.37 883.76,-878.20"/>
    </edge>
    <edge id="10084" from="35" to="40" priority="3" type="highway.residential" spreadType="center" length="52.31" shape="948.40,-832.07 894.87,-874.51">
        <lane id="10084_0" index="0" disallow="pedestrian tram rail_urban rail rail_electric rail_fast ship" speed="36.11" length="52.31" width="3.50" customShape="1" shape="948.40,-832.07 926.49,-846.34 904.57,-860.63"/>
    </edge>
    <edge id="10085" from="40" to="26" priority="3" type="highway.residential" spreadType="center" length="52.30" shape="897.05,-877.25 950.31,-835.00">
        <lane id="10085_0" index="0" disallow="pedestrian tram rail_urban rail rail_electric rail_fast ship" speed="36.11" length="52.30" width="3.50" customShape="1" shape="906.50,-863.56 928.40,-849.28 950.31,-835.00"/>
    </edge>
    <edge id="10143" from="17" to="38" priority="3" type="highway.residential" spreadType="center" length="70.00" shape="848.32,-992.39 839.82,-913.30">
        <lane id="10143_0" index="0" disallow="pedestrian tram rail_urban rail rail_electric rail_fast ship" speed="36.11" length="70.00" width="3.50" customShape="1" shape="848.32,-992.39 849.93,-988.18 851.65,-982.73 853.40,-975.66 854.18,-971.05 854.57,-966.39 854.66,-961.71 854.36,-956.52 853.65,-950.85 852.67,-945.74 851.32,-940.73 849.77,-936.31 847.87,-932.04 844.22,-925.15"/>
    </edge>
    <edge id="10144" from="38" to="9" priority="3" type="highway.residential" spreadType="center" length="70.00" shape="836.34,-913.65 843.88,-993.90">
        <lane id="10144_0" index="0" disallow="pedestrian tram rail_urban rail rail_electric rail_fast ship" speed="36.11" length="70.00" width="3.50" customShape="1" shape="841.14,-926.80 844.68,-933.48 846.50,-937.53 847.96,-941.72 849.25,-946.50 850.19,-951.37 850.87,-956.80 851.16,-961.74 851.08,-966.19 850.71,-970.61 849.96,-974.99 848.29,-981.77 846.64,-987.00 844.50,-992.59 843.88,-993.90"/>
    </edge>
    <edge id="10162" from="33" to="40" priority="3" type="highway.residential" spreadType="center" length="70.00" shape="922.11,-953.87 897.66,-875.29">
        <lane id="10162_0" index="0" disallow="pedestrian tram rail_urban rail rail_electric rail_fast ship" speed="36.11" length="70.00" width="3.50" customShape="1" shape="922.11,-953.87 921.91,-950.43 921.11,-942.79 919.99,-935.71 918.90,-930.71 916.36,-921.85 913.82,-914.07 911.23,-907.38 908.51,-901.31 905.24,-894.93 901.16,-887.83"/>
    </edge>
    <edge id="10163" from="40" to="25" priority="3" type="highway.residential" spreadType="center" length="70.00" shape="894.31,-876.33 918.71,-955.73">
        <lane id="10163_0" index="0" disallow="pedestrian tram rail_urban rail rail_electric rail_fast ship" speed="36.11" length="70.00" width="3.50" customShape="1" shape="898.14,-889.61 902.16,-896.59 905.36,-902.82 908.01,-908.75 910.53,-915.27 913.02,-922.90 915.51,-931.58 916.57,-936.42 917.65,-943.33 918.43,-950.80 918.71,-955.73"/>
    </edge>
    <edge id="10165" from="34" to="39" priority="3" type="highway.residential" spreadType="center" length="15.25" shape="793.74,-893.74 806.41,-918.86">
        <lane id="10165_0" index="0" disallow="pedestrian tram rail_urban rail rail_electric rail_fast ship" speed="36.11" length="15.25" width="3.50" customShape="1" shape="793.74,-893.74 797.87,-900.16 801.99,-906.57"/>
    </edge>
    <edge id="10166" from="39" to="32" priority="3" type="highway.residential" spreadType="center" length="15.25" shape="809.53,-917.28 796.69,-891.85">
        <lane id="10166_0" index="0" disallow="pedestrian tram rail_urban rail rail_electric rail_fast ship" speed="36.11" length="15.25" width="3.50" customShape="1" shape="804.94,-904.68 800.81,-898.27 796.69,-891.85"/>
    </edge>
    <edge id="10178" from="18" to="37" priority="3" type="highway.residential" spreadType="center" length="10.78" shape="858.64,-856.70 867.97,-878.50">
        <lane id="10178_0" index="0" disallow="pedestrian tram rail_urban rail rail_electric rail_fast ship" speed="36.11" length="10.78" width="3.50" customShape="1" shape="858.64,-856.70 861.56,-861.23 864.48,-865.76"/>
    </edge>
    <edge id="10179" from="37" to="15" priority="3" type="highway.residential" spreadType="center" length="10.78" shape="871.18,-877.12 861.58,-854.81">
        <lane id="10179_0" index="0" disallow="pedestrian tram rail_urban rail rail_electric rail_fast ship" speed="36.11" length="10.78" width="3.50" customShape="1" shape="867.42,-863.87 864.50,-859.34 861.58,-854.81"/>
    </edge>

    <junction id="15" type="dead_end" x="861.58" y="-854.81" incLanes="10179_0" intLanes="" shape="863.06,-853.86 860.11,-855.76" rightOfWay="edgePriority"/>
    <junction id="17" type="dead_end" x="848.32" y="-992.39" incLanes="" intLanes="" shape="846.68,-991.76 849.95,-993.01" rightOfWay="edgePriority"/>
    <junction id="18" type="dead_end" x="858.64" y="-856.70" incLanes="" intLanes="" shape="860.11,-855.76 857.17,-857.65" rightOfWay="edgePriority"/>
    <junction id="25" type="dead_end" x="918.71" y="-955.73" incLanes="10163_0" intLanes="" shape="916.96,-955.83 920.46,-955.63" rightOfWay="edgePriority"/>
    <junction id="26" type="dead_end" x="950.31" y="-835.00" incLanes="10085_0" intLanes="" shape="951.27,-836.46 949.35,-833.53" rightOfWay="edgePriority"/>
    <junction id="31" type="dead_end" x="765.02" y="-981.02" incLanes="10072_0" intLanes="" shape="763.52,-981.92 766.52,-980.13" rightOfWay="edgePriority"/>
    <junction id="32" type="dead_end" x="796.69" y="-891.85" incLanes="10166_0" intLanes="" shape="798.16,-890.90 795.22,-892.80" rightOfWay="edgePriority"/>
    <junction id="33" type="dead_end" x="922.11" y="-953.87" incLanes="" intLanes="" shape="920.36,-953.97 923.85,-953.77" rightOfWay="edgePriority"/>
    <junction id="34" type="dead_end" x="793.74" y="-893.74" incLanes="" intLanes="" shape="795.21,-892.80 792.27,-894.69" rightOfWay="edgePriority"/>
    <junction id="35" type="dead_end" x="948.40" y="-832.07" incLanes="" intLanes="" shape="949.35,-833.53 947.44,-830.60" rightOfWay="edgePriority"/>
    <junction id="36" type="dead_end" x="770.53" y="-983.95" incLanes="" intLanes="" shape="768.95,-984.70 772.12,-983.20" rightOfWay="edgePriority"/>
    <junction id="37" type="priority" x="869.53" y="-877.69" incLanes="10081_0 10079_0 10178_0" intLanes=":37_0_0 :37_1_0 :37_2_0 :37_3_0 :37_4_0 :37_5_0" shape="880.73,-873.91 884.40,-879.86 861.96,-894.34 858.13,-888.47 861.97,-885.46 864.59,-882.20 866.01,-878.70 866.21,-874.95 865.21,-870.95 863.01,-866.71 868.89,-862.92 871.57,-866.87 873.96,-869.97 876.07,-872.22 877.90,-873.63 879.46,-874.19">
        <request index="0" response="000000" foes="001000" cont="0"/>
        <request index="1" response="000000" foes="111000" cont="0"/>
        <request index="2" response="000000" foes="100000" cont="0"/>
        <request index="3" response="000011" foes="100011" cont="0"/>
        <request index="4" response="000010" foes="000010" cont="0"/>
        <request index="5" response="001110" foes="001110" cont="0"/>
    </junction>
    <junction id="38" type="priority" x="838.08" y="-913.53" incLanes="10078_0 10143_0 10076_0" intLanes=":38_0_0 :38_1_0 :38_2_0 :38_3_0 :38_4_0 :38_5_0" shape="846.59,-896.00 850.41,-901.86 846.87,-904.71 844.43,-907.92 843.11,-911.49 842.89,-915.42 843.78,-919.70 845.78,-924.35 839.59,-927.62 837.15,-923.52 834.71,-920.45 832.28,-918.42 829.86,-917.43 827.45,-917.48 825.04,-918.57 821.15,-912.75">
        <request index="0" response="000000" foes="001000" cont="0"/>
        <request index="1" response="110000" foes="111000" cont="0"/>
        <request index="2" response="100000" foes="100000" cont="0"/>
        <request index="3" response="100011" foes="100011" cont="0"/>
        <request index="4" response="000000" foes="000010" cont="0"/>
        <request index="5" response="000000" foes="001110" cont="0"/>
    </junction>
    <junction id="39" type="priority" x="807.92" y="-917.97" incLanes="10075_0 10073_0 10165_0" intLanes=":39_0_0 :39_1_0 :39_2_0 :39_3_0 :39_4_0 :39_5_0" shape="820.91,-912.91 824.79,-918.73 799.31,-935.43 795.53,-929.55 799.43,-926.51 802.10,-923.22 803.55,-919.68 803.77,-915.88 802.76,-911.83 800.52,-907.52 806.41,-903.74 809.17,-907.66 811.79,-910.62 814.28,-912.63 816.62,-913.68 818.83,-913.77">
        <request index="0" response="000000" foes="001000" cont="0"/>
        <request index="1" response="000000" foes="111000" cont="0"/>
        <request index="2" response="000000" foes="100000" cont="0"/>
        <request index="3" response="000011" foes="100011" cont="0"/>
        <request index="4" response="000010" foes="000010" cont="0"/>
        <request index="5" response="001110" foes="001110" cont="0"/>
    </junction>
    <junction id="40" type="priority" x="896.00" y="-875.85" incLanes="10084_0 10162_0 10082_0" intLanes=":40_0_0 :40_1_0 :40_2_0 :40_3_0 :40_4_0 :40_5_0" shape="903.63,-859.16 907.45,-865.02 903.81,-867.92 901.30,-871.13 899.94,-874.64 899.72,-878.45 900.63,-882.57 902.69,-886.99 896.63,-890.48 894.15,-886.45 891.87,-883.32 889.79,-881.07 887.90,-879.72 886.20,-879.25 884.69,-879.68 880.97,-873.76">
        <request index="0" response="000000" foes="001000" cont="0"/>
        <request index="1" response="110000" foes="111000" cont="0"/>
        <request index="2" response="100000" foes="100000" cont="0"/>
        <request index="3" response="100011" foes="100011" cont="0"/>
        <request index="4" response="000000" foes="000010" cont="0"/>
        <request index="5" response="000000" foes="001110" cont="0"/>
    </junction>
    <junction id="9" type="dead_end" x="843.88" y="-993.90" incLanes="10144_0" intLanes="" shape="842.30,-993.16 845.47,-994.65" rightOfWay="edgePriority"/>

    <connection from="10073" to="10076" fromLane="0" toLane="0" contPos="-4.00" shape="798.40,-933.94 811.13,-925.60 823.82,-917.28" via=":39_2_0" dir="r" state="M"/>
    <connection from="10073" to="10166" fromLane="0" toLane="0" contPos="-4.00" shape="798.40,-933.94 801.61,-931.62 803.59,-929.86 805.38,-927.92 806.93,-925.78 807.58,-924.63 808.14,-923.43 808.60,-922.19 808.96,-920.92 809.20,-919.62 809.32,-918.30 809.33,-916.98 809.05,-914.36 808.40,-911.79 807.46,-909.32 806.29,-906.95 804.94,-904.68" via=":39_3_0" dir="l" state="m"/>
    <connection from="10075" to="10166" fromLane="0" toLane="0" contPos="-4.00" shape="821.91,-914.35 821.01,-914.87 820.05,-915.28 819.04,-915.53 818.01,-915.63 816.97,-915.56 815.96,-915.33 814.98,-914.98 814.04,-914.52 813.15,-913.98 812.31,-913.38 810.73,-912.02 809.29,-910.52 807.31,-908.10 805.51,-905.55 804.94,-904.68" via=":39_0_0" dir="r" state="M"/>
    <connection from="10075" to="10072" fromLane="0" toLane="0" contPos="-4.00" shape="821.91,-914.35 809.20,-922.68 796.47,-931.02" via=":39_1_0" dir="l" state="M"/>
    <connection from="10076" to="10144" fromLane="0" toLane="0" contPos="-4.00" shape="824.04,-917.13 824.96,-916.57 825.89,-916.11 826.83,-915.76 827.79,-915.54 828.76,-915.45 829.72,-915.50 830.68,-915.70 831.62,-916.03 832.54,-916.49 833.43,-917.05 834.27,-917.68 835.90,-919.21 837.37,-920.93 839.37,-923.78 841.14,-926.80" via=":38_4_0" dir="r" state="M"/>
    <connection from="10076" to="10079" fromLane="0" toLane="0" contPos="-4.00" shape="824.04,-917.13 836.76,-908.76 849.45,-900.40" via=":38_5_0" dir="s" state="M"/>