<routes>
	<vehicle depart="0.1" departLane="0" departPos="45.88430037983748" departSpeed="2.6617514" id="39" type="bicycle">
		<route edges="10691 10721"/>
	</vehicle>
	<vehicle depart="0.1" departLane="0" departPos="2.5" departSpeed="4.0203707" id="31" type="passenger">
		<route edges="10721 10808"/>
	</vehicle>
	<vehicle depart="0.1" departLane="0" departPos="40.211041269006046" departSpeed="5.3361289" id="310" type="passenger">
		<route edges="10691 10721"/>
	</vehicle>
	<vehicle depart="0.1" departLane="0" departPos="8.068742483544485" departSpeed="0.24529235" id="314" type="passenger">
		<route edges=":39_4 10721"/>
	</vehicle>
	<vehicle depart="0.1" departLane="0" departPos="59.41421897646439" departSpeed="4.8162288" id="320" type="passenger">
		<route edges="10691 10721"/>
	</vehicle>
	<vehicle depart="0.1" departLane="0" departPos="26.199066347203466" departSpeed="3.0966902" id="322" type="passenger">
		<route edges="10691 10721"/>
	</vehicle>
	<vehicle depart="0.1" departLane="0" departPos="13.954222661142854" departSpeed="3.2314286" id="326" type="passenger">
		<route edges="10691 10721"/>
	</vehicle>
	<vehicle depart="0.1" departLane="0" departPos="13.774455393103084" departSpeed="1.5891709" id="344" type="passenger">
		<route edges=":39_3 10721"/>
	</vehicle>
	<vehicle depart="0.1" departLane="0" departPos="5.8799407058834365" departSpeed="1.5680582" id="346" type="passenger">
		<route edges=":39_3 10721"/>
	</vehicle>
	<vehicle depart="0.1" departLane="0" departPos="3.75" departSpeed="6.3542035" id="30" type="truck">
		<route edges=":39_1 10728"/>
	</vehicle>
</routes>
