<routes>
	<vehicle depart="0.1" departLane="0" departPos="2.5" departSpeed="3.6867874" id="37" type="passenger">
		<route edges=":91_1 32603"/>
	</vehicle>
	<vehicle depart="0.1" departLane="0" departPos="36.29972487932285" departSpeed="1.2553533" id="346" type="passenger">
		<route edges="32600 32548"/>
	</vehicle>
	<vehicle depart="0.1" departLane="0" departPos="24.84656826174541" departSpeed="1.061869" id="354" type="passenger">
		<route edges="32600 32548"/>
	</vehicle>
	<vehicle depart="0.1" departLane="0" departPos="16.548423340719907" departSpeed="0.0" id="356" type="passenger">
		<route edges="32549 32599"/>
	</vehicle>
	<vehicle depart="0.1" departLane="0" departPos="17.403335120055374" departSpeed="0.54339074" id="361" type="passenger">
		<route edges="32600 32548"/>
	</vehicle>
	<vehicle depart="0.1" departLane="0" departPos="10.202633082101455" departSpeed="0.93539254" id="367" type="passenger">
		<route edges="32600 32548"/>
	</vehicle>
	<vehicle depart="0.1" departLane="0" departPos="9.018509419190181" departSpeed="0.033483888" id="371" type="passenger">
		<route edges="32549 32599"/>
	</vehicle>
</routes>
