<routes>
	<vehicle depart="0.1" departLane="0" departPos="64.0308822502928" departSpeed="0.007586231" id="327" type="bicycle">
		<route edges="21146 21143"/>
	</vehicle>
	<vehicle depart="0.1" departLane="0" departPos="44.117922716840035" departSpeed="0.62894999" id="312" type="passenger">
		<route edges="21639 21144"/>
	</vehicle>
	<vehicle depart="0.1" departLane="0" departPos="70.03772318712086" departSpeed="0.0" id="326" type="passenger">
		<route edges="21146 21143"/>
	</vehicle>
	<vehicle depart="0.1" departLane="0" departPos="41.6591630961224" departSpeed="5.0316178" id="362" type="passenger">
		<route edges=":60_0 21144 21741"/>
	</vehicle>
	<vehicle depart="0.1" departLane="0" departPos="62.13815908310173" departSpeed="5.4612585" id="363" type="passenger">
		<route edges="21141 21144"/>
	</vehicle>
	<vehicle depart="0.1" departLane="0" departPos="5.6133215047360085" departSpeed="5.6974259" id="364" type="passenger">
		<route edges=":60_0 21144"/>
	</vehicle>
</routes>
