<routes>
	<vehicle depart="0.1" departLane="0" departPos="20.43367637582184" departSpeed="1.113737" id="313" type="passenger">
		<route edges=":38_3 18466 18553"/>
	</vehicle>
	<vehicle depart="0.1" departLane="0" departPos="7.50605832765673" departSpeed="7.1449298" id="316" type="passenger">
		<route edges=":35_0 18687"/>
	</vehicle>
	<vehicle depart="0.1" departLane="0" departPos="14.769280773623894" departSpeed="3.3728951" id="321" type="passenger">
		<route edges=":38_0 18635"/>
	</vehicle>
	<vehicle depart="0.1" departLane="0" departPos="6.5067326897612" departSpeed="0.17050313" id="322" type="passenger">
		<route edges="19507 18840"/>
	</vehicle>
	<vehicle depart="0.1" departLane="0" departPos="2.5" departSpeed="0.67667006" id="324" type="passenger">
		<route edges=":38_1 18466 18553 21017"/>
	</vehicle>
	<vehicle depart="0.1" departLane="0" departPos="8.38438651740476" departSpeed="1.089706" id="325" type="motorcycle">
		<route edges="18752 18635"/>
	</vehicle>
	<vehicle depart="0.1" departLane="0" departPos="8.254333084864976" departSpeed="0.81108622" id="318" type="truck">
		<route edges=":32_0 18616"/>
	</vehicle>
</routes>
