<routes>
	<vehicle depart="0.1" departLane="0" departPos="24.132151901449785" departSpeed="0.47178134" id="37" type="bicycle">
		<route edges=":64_5 39137"/>
	</vehicle>
	<vehicle depart="0.1" departLane="0" departPos="31.953637418267956" departSpeed="2.0512799" id="378" type="bus">
		<route edges="39447 39137"/>
	</vehicle>
	<vehicle depart="0.1" departLane="0" departPos="33.89501913352011" departSpeed="9.4095864e-05" id="326" type="passenger">
		<route edges=":66_4 39134"/>
	</vehicle>
	<vehicle depart="0.1" departLane="0" departPos="69.89758165749177" departSpeed="0.0" id="327" type="passenger">
		<route edges="39457 39140"/>
	</vehicle>
	<vehicle depart="0.1" departLane="0" departPos="11.464828426948525" departSpeed="1.5270725" id="386" type="passenger">
		<route edges="39447 39137"/>
	</vehicle>
	<vehicle depart="0.1" departLane="0" departPos="5.336976463384357" departSpeed="0.30044034" id="395" type="passenger">
		<route edges="39447 39137"/>
	</vehicle>
	<vehicle depart="0.1" departLane="0" departPos="61.84843898587903" departSpeed="0.58572918" id="352" type="motorcycle">
		<route edges="39457 39140"/>
	</vehicle>
	<vehicle depart="0.1" departLane="0" departPos="3.75" departSpeed="0.0" id="321" type="truck">
		<route edges="39134 39448"/>
	</vehicle>
</routes>
