<routes>
	<vehicle depart="0.1" departLane="0" departPos="49.27567046115477" departSpeed="0.0" id="35" type="passenger">
		<route edges="21530 21559"/>
	</vehicle>
	<vehicle depart="0.1" departLane="0" departPos="27.514516551266478" departSpeed="9.8164935" id="36" type="passenger">
		<route edges=":41_0 21533 21634"/>
	</vehicle>
	<vehicle depart="0.1" departLane="0" departPos="42.12641766864844" departSpeed="0.0" id="38" type="passenger">
		<route edges="21530 21559"/>
	</vehicle>
	<vehicle depart="0.1" departLane="0" departPos="16.7142378646528" departSpeed="4.131056" id="317" type="passenger">
		<route edges=":41_10 21529"/>
	</vehicle>
	<vehicle depart="0.1" departLane="0" departPos="11.600135334934976" departSpeed="2.135861" id="320" type="motorcycle">
		<route edges=":41_9 21559"/>
	</vehicle>
	<vehicle depart="0.1" departLane="0" departPos="49.10491323187815" departSpeed="0.0" id="324" type="truck">
		<route edges="21693 22902"/>
	</vehicle>
</routes>
