<!-- generated on Tue Feb  9 22:08:32 2021 by Eclipse SUMO netconvert Version 1.8.0
<configuration xmlns:xsi="http://www.w3.org/2001/XMLSchema-instance" xsi:noNamespaceSchemaLocation="http://sumo.dlr.de/xsd/netconvertConfiguration.xsd">

    <input>
        <node-files value="./converted_scenarios/scenario-factory/HRV_Pula-34_4_I-1-1/HRV_Pula-34_4_I-1-1.nod.xml"/>
        <edge-files value="./converted_scenarios/scenario-factory/HRV_Pula-34_4_I-1-1/HRV_Pula-34_4_I-1-1.edg.xml"/>
        <connection-files value="./converted_scenarios/scenario-factory/HRV_Pula-34_4_I-1-1/HRV_Pula-34_4_I-1-1.con.xml"/>
        <tllogic-files value="./converted_scenarios/scenario-factory/HRV_Pula-34_4_I-1-1/HRV_Pula-34_4_I-1-1.tll.xml"/>
        <type-files value="/home/zen/commonroad-interactive-benchmarks/install/commonroad-map-tool/crmapconverter/sumo_map/templates/DEU.typ.xml"/>
    </input>

    <output>
        <output-file value="./converted_scenarios/scenario-factory/HRV_Pula-34_4_I-1-1/HRV_Pula-34_4_I-1-1.net.xml"/>
    </output>

    <processing>
        <geometry.remove.keep-edges.explicit value="true"/>
        <geometry.avoid-overlap value="true"/>
        <offset.disable-normalization value="true"/>
    </processing>

    <junctions>
        <no-turnarounds value="true"/>
        <junctions.internal-link-detail value="20"/>
    </junctions>

    <report>
        <aggregate-warnings value="5"/>
    </report>

    <random_number>
        <seed value="1234"/>
    </random_number>

</configuration>
--><net xmlns:xsi="http://www.w3.org/2001/XMLSchema-instance" version="1.6" junctionCornerDetail="5" junctionLinkDetail="20" limitTurnSpeed="5.50" xsi:noNamespaceSchemaLocation="http://sumo.dlr.de/xsd/net_file.xsd">

    <location netOffset="0.00,0.00" convBoundary="-169.58,-130.85,83.89,32.92" origBoundary="-169.58,-130.85,83.89,35.07" projParameter="!"/>

    <type id="highway.bridleway" priority="1" speed="2.78" allow="pedestrian" oneway="1" width="2.00"/>
    <type id="highway.bus_guideway" priority="1" speed="27.78" allow="bus" oneway="1"/>
    <type id="highway.cycleway" priority="1" speed="8.33" allow="bicycle" oneway="0" width="1.00"/>
    <type id="highway.footway" priority="1" speed="2.78" allow="pedestrian" oneway="1" width="2.00"/>
    <type id="highway.ford" priority="1" speed="2.78" allow="army" oneway="0"/>
    <type id="highway.living_street" priority="2" speed="2.78" disallow="tram rail_urban rail rail_electric rail_fast ship" oneway="0"/>
    <type id="highway.motorway" priority="14" speed="39.44" allow="private emergency authority army vip passenger hov taxi bus coach delivery truck trailer motorcycle evehicle custom1 custom2" oneway="1"/>
    <type id="highway.motorway_link" priority="9" speed="22.22" allow="private emergency authority army vip passenger hov taxi bus coach delivery truck trailer motorcycle evehicle custom1 custom2" oneway="1"/>
    <type id="highway.path" priority="1" speed="2.78" allow="pedestrian bicycle" oneway="0" width="2.00"/>
    <type id="highway.pedestrian" priority="1" speed="2.78" allow="pedestrian" oneway="1" width="2.00"/>
    <type id="highway.primary" priority="12" speed="27.78" disallow="pedestrian tram rail_urban rail rail_electric rail_fast ship" oneway="0"/>
    <type id="highway.primary_link" priority="7" speed="22.22" disallow="pedestrian tram rail_urban rail rail_electric rail_fast ship" oneway="0"/>
    <type id="highway.raceway" priority="15" speed="83.33" allow="vip" oneway="0"/>
    <type id="highway.residential" priority="3" speed="13.89" disallow="pedestrian tram rail_urban rail rail_electric rail_fast ship" oneway="0"/>
    <type id="highway.secondary" priority="11" speed="27.78" disallow="pedestrian tram rail_urban rail rail_electric rail_fast ship" oneway="0"/>
    <type id="highway.secondary_link" priority="6" speed="22.22" disallow="pedestrian tram rail_urban rail rail_electric rail_fast ship" oneway="0"/>
    <type id="highway.service" priority="1" speed="5.56" allow="pedestrian delivery bicycle" oneway="0"/>
    <type id="highway.stairs" priority="1" speed="1.39" allow="pedestrian" oneway="1" width="2.00"/>
    <type id="highway.step" priority="1" speed="1.39" allow="pedestrian" oneway="1" width="2.00"/>
    <type id="highway.steps" priority="1" speed="1.39" allow="pedestrian" oneway="1" width="2.00"/>
    <type id="highway.tertiary" priority="10" speed="22.22" disallow="pedestrian tram rail_urban rail rail_electric rail_fast ship" oneway="0"/>
    <type id="highway.tertiary_link" priority="5" speed="22.22" disallow="pedestrian tram rail_urban rail rail_electric rail_fast ship" oneway="0"/>
    <type id="highway.track" priority="1" speed="5.56" allow="pedestrian motorcycle moped bicycle" oneway="0"/>
    <type id="highway.trunk" priority="13" speed="27.78" disallow="pedestrian bicycle tram rail_urban rail rail_electric rail_fast ship" oneway="0"/>
    <type id="highway.trunk_link" priority="8" speed="22.22" disallow="pedestrian bicycle tram rail_urban rail rail_electric rail_fast ship" oneway="0"/>
    <type id="highway.unclassified" priority="4" speed="13.89" disallow="pedestrian tram rail_urban rail rail_electric rail_fast ship" oneway="0"/>
    <type id="highway.unsurfaced" priority="1" speed="8.33" disallow="tram rail_urban rail rail_electric rail_fast ship" oneway="0"/>
    <type id="railway.highspeed" priority="21" speed="69.44" allow="rail_fast" oneway="1"/>
    <type id="railway.light_rail" priority="19" speed="27.78" allow="rail_urban" oneway="1"/>
    <type id="railway.preserved" priority="16" speed="27.78" allow="rail" oneway="1"/>
    <type id="railway.rail" priority="20" speed="44.44" allow="rail" oneway="1"/>
    <type id="railway.subway" priority="18" speed="27.78" allow="rail_urban" oneway="1"/>
    <type id="railway.tram" priority="17" speed="13.89" allow="tram" oneway="1"/>

    <edge id=":16_0" function="internal">
        <lane id=":16_0_0" index="0" disallow="pedestrian tram rail_urban rail rail_electric rail_fast ship" speed="36.11" length="3.24" width="3.50" shape="-44.48,-87.01 -45.41,-90.11"/>
    </edge>
    <edge id=":32_0" function="internal">
        <lane id=":32_0_0" index="0" disallow="pedestrian tram rail_urban rail rail_electric rail_fast ship" speed="36.11" length="3.24" width="3.50" shape="-32.83,-114.58 -29.77,-115.64"/>
    </edge>
    <edge id=":34_0" function="internal">
        <lane id=":34_0_0" index="0" disallow="pedestrian tram rail_urban rail rail_electric rail_fast ship" speed="36.11" length="3.24" width="3.50" shape="-42.07,-91.15 -41.14,-88.05"/>
    </edge>
    <edge id=":38_0" function="internal">
        <lane id=":38_0_0" index="0" disallow="pedestrian tram rail_urban rail rail_electric rail_fast ship" speed="36.11" length="3.24" width="3.50" shape="-28.66,-112.32 -31.72,-111.26"/>
    </edge>
    <edge id=":41_0" function="internal">
        <lane id=":41_0_0" index="0" disallow="pedestrian tram rail_urban rail rail_electric rail_fast ship" speed="11.37" length="29.06" width="3.50" shape="-26.47,-32.94 -27.66,-35.92 -28.65,-37.84 -29.81,-39.66 -31.16,-41.34 -32.72,-42.83 -33.58,-43.48 -34.49,-44.06 -35.44,-44.57 -36.43,-45.00 -37.45,-45.34 -39.56,-45.79 -41.71,-45.93 -43.87,-45.82 -46.00,-45.49 -49.10,-44.68"/>
    </edge>
    <edge id=":41_1" function="internal">
        <lane id=":41_1_0" index="0" disallow="pedestrian tram rail_urban rail rail_electric rail_fast ship" speed="36.11" length="39.32" width="3.50" shape="-26.47,-32.94 -29.49,-41.73 -39.00,-70.21"/>
    </edge>
    <edge id=":41_2" function="internal">
        <lane id=":41_2_0" index="0" disallow="pedestrian tram rail_urban rail rail_electric rail_fast ship" speed="12.02" length="34.60" width="3.50" shape="-26.47,-32.94 -27.52,-36.62 -27.99,-39.21 -28.17,-41.85 -28.02,-44.51 -27.77,-45.88 -27.42,-47.21 -26.95,-48.51 -26.35,-49.77 -25.64,-50.96 -24.82,-52.07 -23.92,-53.11 -22.92,-54.07 -20.81,-55.69 -18.53,-57.03 -16.15,-58.12 -12.52,-59.37"/>
    </edge>
    <edge id=":41_3" function="internal">
        <lane id=":41_3_0" index="0" disallow="pedestrian tram rail_urban rail rail_electric rail_fast ship" speed="11.01" length="28.82" width="3.50" shape="-11.55,-56.00 -14.70,-54.93 -16.72,-54.01 -18.63,-52.88 -20.39,-51.53 -21.19,-50.76 -21.92,-49.93 -22.58,-49.03 -23.15,-48.08 -23.62,-47.08 -24.01,-46.04 -24.29,-44.96 -24.49,-43.87 -24.62,-41.66 -24.46,-39.44 -24.07,-37.26 -23.16,-34.08"/>
    </edge>
    <edge id=":41_4" function="internal">
        <lane id=":41_4_0" index="0" disallow="pedestrian tram rail_urban rail rail_electric rail_fast ship" speed="36.11" length="39.22" width="3.50" shape="-11.55,-56.00 -33.35,-49.57 -49.10,-44.68"/>
    </edge>
    <edge id=":41_5" function="internal">
        <lane id=":41_5_0" index="0" disallow="pedestrian tram rail_urban rail rail_electric rail_fast ship" speed="12.52" length="35.16" width="3.50" shape="-11.55,-56.00 -15.35,-55.11 -17.93,-54.76 -20.53,-54.64 -23.13,-54.82 -25.68,-55.34 -26.93,-55.73 -28.13,-56.23 -29.29,-56.82 -30.40,-57.50 -31.45,-58.27 -33.37,-60.03 -35.02,-62.05 -36.42,-64.24 -37.59,-66.57 -39.00,-70.21"/>
    </edge>
    <edge id=":41_6" function="internal">
        <lane id=":41_6_0" index="0" disallow="pedestrian tram rail_urban rail rail_electric rail_fast ship" speed="11.55" length="29.72" width="3.50" shape="-35.67,-71.31 -34.44,-68.11 -33.44,-66.12 -32.25,-64.26 -30.87,-62.58 -29.27,-61.11 -28.43,-60.50 -27.53,-59.95 -26.59,-59.47 -25.60,-59.07 -24.62,-58.76 -22.47,-58.32 -20.29,-58.18 -18.07,-58.28 -15.85,-58.58 -12.52,-59.37"/>
    </edge>
    <edge id=":41_7" function="internal">
        <lane id=":41_7_0" index="0" disallow="pedestrian tram rail_urban rail rail_electric rail_fast ship" speed="36.11" length="39.28" width="3.50" shape="-35.67,-71.31 -26.17,-42.86 -23.16,-34.08"/>
    </edge>
    <edge id=":41_8" function="internal">
        <lane id=":41_8_0" index="0" disallow="pedestrian tram rail_urban rail rail_electric rail_fast ship" speed="12.15" length="34.18" width="3.50" shape="-35.67,-71.31 -34.96,-68.86 -34.43,-66.35 -34.13,-63.77 -34.12,-61.14 -34.46,-58.52 -34.79,-57.18 -35.23,-55.89 -35.79,-54.65 -36.45,-53.45 -37.21,-52.33 -38.07,-51.27 -39.02,-50.28 -41.03,-48.59 -43.24,-47.18 -45.56,-46.01 -49.10,-44.68"/>
    </edge>
    <edge id=":41_9" function="internal">
        <lane id=":41_9_0" index="0" disallow="pedestrian tram rail_urban rail rail_electric rail_fast ship" speed="11.14" length="28.55" width="3.50" shape="-50.16,-48.01 -47.10,-49.17 -45.14,-50.15 -43.29,-51.34 -41.60,-52.75 -40.84,-53.55 -40.15,-54.40 -39.54,-55.31 -39.00,-56.27 -38.56,-57.28 -38.20,-58.32 -37.94,-59.39 -37.66,-61.57 -37.67,-63.77 -37.93,-65.95 -38.38,-68.10 -39.00,-70.21"/>
    </edge>
    <edge id=":41_10" function="internal">
        <lane id=":41_10_0" index="0" disallow="pedestrian tram rail_urban rail rail_electric rail_fast ship" speed="36.11" length="39.32" width="3.50" shape="-50.16,-48.01 -34.36,-52.92 -12.52,-59.37"/>
    </edge>
    <edge id=":41_11" function="internal">
        <lane id=":41_11_0" index="0" disallow="pedestrian tram rail_urban rail rail_electric rail_fast ship" speed="12.36" length="34.55" width="3.50" shape="-50.16,-48.01 -46.58,-48.94 -44.08,-49.33 -41.52,-49.47 -38.94,-49.30 -36.41,-48.77 -35.12,-48.34 -33.90,-47.82 -32.73,-47.20 -31.62,-46.49 -30.54,-45.67 -28.68,-43.90 -27.06,-41.90 -25.69,-39.75 -24.53,-37.50 -23.16,-34.08"/>
    </edge>
    <edge id=":42_0" function="internal">
        <lane id=":42_0_0" index="0" disallow="pedestrian tram rail_urban rail rail_electric rail_fast ship" speed="36.11" length="38.35" width="3.50" shape="-92.65,-12.43 -98.61,-30.65 -104.56,-48.88"/>
    </edge>
    <edge id=":42_1" function="internal">
        <lane id=":42_1_0" index="0" disallow="pedestrian tram rail_urban rail rail_electric rail_fast ship" speed="12.16" length="34.19" width="3.50" shape="-92.66,-12.43 -93.64,-16.11 -94.04,-18.68 -94.18,-21.30 -93.98,-23.92 -93.73,-25.27 -93.37,-26.58 -92.90,-27.85 -92.31,-29.09 -91.62,-30.26 -90.83,-31.37 -89.96,-32.40 -88.99,-33.38 -86.95,-35.02 -84.74,-36.41 -82.41,-37.56 -78.85,-38.89"/>
    </edge>
    <edge id=":42_2" function="internal">
        <lane id=":42_2_0" index="0" disallow="pedestrian tram rail_urban rail rail_electric rail_fast ship" speed="11.15" length="28.59" width="3.50" shape="-77.79,-35.56 -80.88,-34.40 -82.85,-33.43 -84.72,-32.27 -86.43,-30.88 -87.20,-30.10 -87.92,-29.26 -88.56,-28.37 -89.11,-27.42 -89.59,-26.43 -89.97,-25.40 -90.26,-24.34 -90.47,-23.26 -90.63,-21.06 -90.52,-18.87 -90.18,-16.70 -89.33,-13.51"/>
    </edge>
    <edge id=":42_3" function="internal">
        <lane id=":42_3_0" index="0" disallow="pedestrian tram rail_urban rail rail_electric rail_fast ship" speed="12.23" length="34.23" width="3.50" shape="-77.79,-35.56 -81.61,-34.55 -84.21,-34.14 -86.84,-33.98 -89.47,-34.14 -90.76,-34.35 -92.04,-34.67 -93.29,-35.08 -94.50,-35.61 -95.66,-36.23 -96.76,-36.96 -97.79,-37.77 -99.65,-39.64 -101.23,-41.74 -102.56,-44.02 -103.66,-46.41 -104.56,-48.88"/>
    </edge>
    <edge id=":42_4" function="internal">
        <lane id=":42_4_0" index="0" disallow="pedestrian tram rail_urban rail rail_electric rail_fast ship" speed="11.24" length="28.70" width="3.50" shape="-101.25,-49.99 -100.45,-47.83 -99.51,-45.77 -98.39,-43.84 -97.07,-42.09 -95.52,-40.55 -94.71,-39.91 -93.82,-39.33 -92.89,-38.83 -91.92,-38.41 -90.92,-38.08 -89.88,-37.82 -88.84,-37.65 -86.62,-37.52 -84.40,-37.66 -82.19,-38.02 -78.85,-38.89"/>
    </edge>
    <edge id=":42_5" function="internal">
        <lane id=":42_5_0" index="0" disallow="pedestrian tram rail_urban rail rail_electric rail_fast ship" speed="36.11" length="38.38" width="3.50" shape="-101.25,-49.99 -95.28,-31.74 -89.33,-13.51"/>
    </edge>
    <edge id=":43_0" function="internal">
        <lane id=":43_0_0" index="0" disallow="pedestrian tram rail_urban rail rail_electric rail_fast ship" speed="36.11" length="39.76" width="3.50" shape="14.03,30.54 -22.65,32.36 -25.68,32.53"/>
    </edge>
    <edge id=":43_1" function="internal">
        <lane id=":43_1_0" index="0" disallow="pedestrian tram rail_urban rail rail_electric rail_fast ship" speed="14.31" length="37.07" width="3.50" shape="14.03,30.54 11.62,30.54 9.24,30.33 6.90,29.87 4.62,29.15 2.43,28.18 0.37,26.97 -1.54,25.54 -3.30,23.92 -4.91,22.15 -7.03,19.26 -8.86,16.17 -10.42,12.94 -12.15,8.49"/>
    </edge>
    <edge id=":43_2" function="internal">
        <lane id=":43_2_0" index="0" disallow="pedestrian tram rail_urban rail rail_electric rail_fast ship" speed="13.43" length="32.57" width="3.50" shape="-8.85,7.34 -7.27,11.41 -5.87,14.32 -4.25,17.09 -2.38,19.67 -1.00,21.23 0.51,22.65 2.15,23.90 3.90,24.96 5.76,25.81 7.70,26.44 9.71,26.85 11.77,27.05 13.88,27.04"/>
    </edge>
    <edge id=":43_3" function="internal">
        <lane id=":43_3_0" index="0" disallow="pedestrian tram rail_urban rail rail_electric rail_fast ship" speed="11.60" length="37.34" width="3.50" shape="-8.85,7.34 -8.03,9.96 -7.40,12.66 -7.00,15.44 -6.95,18.27 -7.08,19.76 -7.36,21.21 -7.79,22.65 -8.39,24.05 -9.16,25.37 -10.09,26.59 -11.15,27.67 -12.32,28.62 -13.56,29.43 -14.86,30.11 -16.21,30.69 -18.88,31.53 -21.62,32.10 -25.68,32.53"/>
    </edge>
    <edge id=":43_4" function="internal">
        <lane id=":43_4_0" index="0" disallow="pedestrian tram rail_urban rail rail_electric rail_fast ship" speed="10.55" length="30.67" width="3.50" shape="-25.91,29.04 -22.39,28.66 -20.08,28.19 -17.83,27.48 -16.75,27.01 -15.70,26.46 -14.71,25.82 -13.80,25.08 -12.97,24.24 -12.25,23.30 -11.66,22.28 -11.20,21.20 -10.86,20.07 -10.64,18.91 -10.53,17.73 -10.58,15.38 -10.91,13.04 -11.45,10.74 -12.15,8.49"/>
    </edge>
    <edge id=":43_5" function="internal">
        <lane id=":43_5_0" index="0" disallow="pedestrian tram rail_urban rail rail_electric rail_fast ship" speed="36.11" length="39.84" width="3.50" shape="-25.91,29.04 -22.85,28.86 13.88,27.04"/>
    </edge>
    <edge id=":44_0" function="internal">
        <lane id=":44_0_0" index="0" disallow="pedestrian tram rail_urban rail rail_electric rail_fast ship" speed="36.11" length="41.15" width="3.50" shape="-58.46,34.45 -59.50,34.51 -70.81,34.95 -84.19,35.07 -99.60,34.82"/>
    </edge>
    <edge id=":44_1" function="internal">
        <lane id=":44_1_0" index="0" disallow="pedestrian tram rail_urban rail rail_electric rail_fast ship" speed="14.24" length="37.90" width="3.50" shape="-58.46,34.45 -60.92,34.48 -63.39,34.26 -65.84,33.77 -68.22,32.99 -70.49,31.93 -72.61,30.60 -74.56,29.06 -76.33,27.33 -77.92,25.45 -79.98,22.47 -81.72,19.33 -83.21,16.07 -84.83,11.63"/>
    </edge>
    <edge id=":44_2" function="internal">
        <lane id=":44_2_0" index="0" disallow="pedestrian tram rail_urban rail rail_electric rail_fast ship" speed="13.36" length="33.29" width="3.50" shape="-81.51,10.54 -80.03,14.58 -78.71,17.52 -77.16,20.35 -75.36,23.01 -73.99,24.66 -72.47,26.19 -70.81,27.55 -69.01,28.71 -67.08,29.65 -65.05,30.34 -62.95,30.78 -60.81,30.98 -58.66,30.96"/>
    </edge>
    <edge id=":44_3" function="internal">
        <lane id=":44_3_0" index="0" disallow="pedestrian tram rail_urban rail rail_electric rail_fast ship" speed="11.54" length="38.50" width="3.50" shape="-81.50,10.54 -80.32,14.83 -79.80,17.75 -79.59,20.70 -79.63,22.18 -79.78,23.65 -80.08,25.10 -80.54,26.51 -81.16,27.85 -81.96,29.10 -82.93,30.22 -84.03,31.21 -85.25,32.05 -86.56,32.75 -87.92,33.32 -89.33,33.78 -92.22,34.41 -95.17,34.74 -99.60,34.82"/>
    </edge>
    <edge id=":44_4" function="internal">
        <lane id=":44_4_0" index="0" disallow="pedestrian tram rail_urban rail rail_electric rail_fast ship" speed="10.49" length="31.55" width="3.50" shape="-99.54,31.32 -95.65,31.25 -93.16,30.98 -90.71,30.44 -89.59,30.07 -88.49,29.62 -87.47,29.07 -86.54,28.43 -85.70,27.68 -84.98,26.85 -84.39,25.92 -83.92,24.91 -83.57,23.83 -83.34,22.69 -83.21,21.51 -83.18,20.33 -83.36,17.83 -83.80,15.35 -84.83,11.63"/>
    </edge>
    <edge id=":44_5" function="internal">
        <lane id=":44_5_0" index="0" disallow="pedestrian tram rail_urban rail rail_electric rail_fast ship" speed="36.11" length="40.89" width="3.50" shape="-99.54,31.32 -84.19,31.57 -70.91,31.45 -59.68,31.02 -58.66,30.96"/>
    </edge>

    <edge id="21529" from="41" to="14" priority="3" type="highway.residential" spreadType="center" length="49.03" shape="-31.48,-53.74 34.62,-72.86">
        <lane id="21529_0" index="0" disallow="pedestrian tram rail_urban rail rail_electric rail_fast ship" speed="36.11" length="49.03" width="3.50" customShape="1" shape="-12.52,-59.37 11.05,-66.12 34.62,-72.86"/>
    </edge>
    <edge id="21530" from="33" to="41" priority="3" type="highway.residential" spreadType="center" length="49.03" shape="35.58,-69.50 -30.51,-50.38">
        <lane id="21530_0" index="0" disallow="pedestrian tram rail_urban rail rail_electric rail_fast ship" speed="36.11" length="49.03" width="3.50" customShape="1" shape="35.58,-69.50 12.02,-62.75 -11.55,-56.00"/>
    </edge>
    <edge id="21532" from="42" to="41" priority="3" type="highway.residential" spreadType="center" length="30.10" shape="-91.31,-34.87 -31.48,-53.74">
        <lane id="21532_0" index="0" disallow="pedestrian tram rail_urban rail rail_electric rail_fast ship" speed="36.11" length="30.10" width="3.50" customShape="1" shape="-78.85,-38.89 -64.52,-43.45 -50.16,-48.01"/>
    </edge>
    <edge id="21533" from="41" to="42" priority="3" type="highway.residential" spreadType="center" length="30.10" shape="-30.43,-50.41 -90.26,-31.53">
        <lane id="21533_0" index="0" disallow="pedestrian tram rail_urban rail rail_electric rail_fast ship" speed="36.11" length="30.10" width="3.50" customShape="1" shape="-49.10,-44.68 -63.46,-40.11 -77.79,-35.56"/>
    </edge>
    <edge id="21535" from="44" to="42" priority="3" type="highway.residential" spreadType="center" length="25.33" shape="-82.15,25.97 -92.46,-32.91">
        <lane id="21535_0" index="0" disallow="pedestrian tram rail_urban rail rail_electric rail_fast ship" speed="36.11" length="25.33" width="3.50" customShape="1" shape="-84.83,11.63 -88.74,-0.40 -92.66,-12.46"/>
    </edge>
    <edge id="21536" from="42" to="44" priority="3" type="highway.residential" spreadType="center" length="25.30" shape="-89.02,-33.52 -78.71,25.37">
        <lane id="21536_0" index="0" disallow="pedestrian tram rail_urban rail rail_electric rail_fast ship" speed="36.11" length="25.30" width="3.50" customShape="1" shape="-89.33,-13.51 -85.41,-1.48 -81.50,10.55"/>
    </edge>
    <edge id="21559" from="41" to="16" priority="3" type="highway.residential" spreadType="center" length="17.67" shape="-32.59,-51.45 -44.99,-88.55">
        <lane id="21559_0" index="0" disallow="pedestrian tram rail_urban rail rail_electric rail_fast ship" speed="36.11" length="17.67" width="3.50" customShape="1" shape="-39.00,-70.21 -41.99,-79.38 -44.48,-87.01"/>
    </edge>
    <edge id="21560" from="34" to="41" priority="3" type="highway.residential" spreadType="center" length="17.62" shape="-41.65,-89.59 -29.27,-52.55">
        <lane id="21560_0" index="0" disallow="pedestrian tram rail_urban rail rail_electric rail_fast ship" speed="36.11" length="17.62" width="3.50" customShape="1" shape="-41.14,-88.05 -38.66,-80.47 -35.67,-71.30"/>
    </edge>
    <edge id="21562" from="43" to="41" priority="3" type="highway.residential" spreadType="center" length="43.84" shape="-9.10,23.06 -32.62,-51.55">
        <lane id="21562_0" index="0" disallow="pedestrian tram rail_urban rail rail_electric rail_fast ship" speed="36.11" length="43.84" width="3.50" customShape="1" shape="-12.15,8.49 -19.31,-12.21 -26.47,-32.94"/>
    </edge>
    <edge id="21563" from="41" to="43" priority="3" type="highway.residential" spreadType="center" length="43.83" shape="-29.29,-52.60 -5.77,22.01">
        <lane id="21563_0" index="0" disallow="pedestrian tram rail_urban rail rail_electric rail_fast ship" speed="36.11" length="43.83" width="3.50" customShape="1" shape="-23.16,-34.08 -16.00,-13.36 -8.85,7.35"/>
    </edge>
    <edge id="21633" from="35" to="42" priority="3" type="highway.residential" spreadType="center" length="15.56" shape="-106.09,-64.75 -89.17,-33.98">
        <lane id="21633_0" index="0" disallow="pedestrian tram rail_urban rail rail_electric rail_fast ship" speed="36.11" length="15.56" width="3.50" customShape="1" shape="-106.09,-64.75 -103.66,-57.36 -101.24,-49.97"/>
    </edge>
    <edge id="21634" from="42" to="20" priority="3" type="highway.residential" spreadType="center" length="15.56" shape="-92.23,-32.30 -109.42,-63.66">
        <lane id="21634_0" index="0" disallow="pedestrian tram rail_urban rail rail_electric rail_fast ship" speed="36.11" length="15.56" width="3.50" customShape="1" shape="-104.56,-48.88 -106.99,-56.27 -109.42,-63.66"/>
    </edge>
    <edge id="21692" from="32" to="37" priority="3" type="highway.residential" spreadType="center" length="49.13">
        <lane id="21692_0" index="0" disallow="pedestrian tram rail_urban rail rail_electric rail_fast ship" speed="36.11" length="49.13" width="3.50" customShape="1" shape="-29.77,-115.64 -7.18,-122.99 16.95,-130.85"/>
    </edge>
    <edge id="21693" from="40" to="38" priority="3" type="highway.residential" spreadType="center" length="49.11">
        <lane id="21693_0" index="0" disallow="pedestrian tram rail_urban rail rail_electric rail_fast ship" speed="36.11" length="49.11" width="3.50" customShape="1" shape="18.04,-127.52 -6.10,-119.66 -28.66,-112.32"/>
    </edge>
    <edge id="21695" from="44" to="25" priority="3" type="highway.residential" spreadType="center" length="70.01" shape="-80.30,27.37 -169.58,32.92">
        <lane id="21695_0" index="0" disallow="pedestrian tram rail_urban rail rail_electric rail_fast ship" speed="36.11" length="70.01" width="3.50" customShape="1" shape="-99.60,34.82 -151.11,33.42 -169.58,32.92"/>
    </edge>
    <edge id="21696" from="36" to="44" priority="3" type="highway.residential" spreadType="center" length="70.04" shape="-169.52,29.42 -80.51,23.87">
        <lane id="21696_0" index="0" disallow="pedestrian tram rail_urban rail rail_electric rail_fast ship" speed="36.11" length="70.04" width="3.50" customShape="1" shape="-169.52,29.42 -151.02,29.92 -99.51,31.32"/>
    </edge>
    <edge id="21698" from="43" to="44" priority="3" type="highway.residential" spreadType="center" length="32.87" shape="-7.37,24.25 -80.41,27.37">
        <lane id="21698_0" index="0" disallow="pedestrian tram rail_urban rail rail_electric rail_fast ship" speed="36.11" length="32.87" width="3.50" customShape="1" shape="-25.68,32.53 -42.08,33.49 -58.49,34.45"/>
    </edge>
    <edge id="21699" from="44" to="43" priority="3" type="highway.residential" spreadType="center" length="32.84" shape="-80.56,23.88 -7.52,20.75">
        <lane id="21699_0" index="0" disallow="pedestrian tram rail_urban rail rail_electric rail_fast ship" speed="36.11" length="32.84" width="3.50" customShape="1" shape="-58.66,30.96 -42.29,30.00 -25.88,29.04"/>
    </edge>
    <edge id="21701" from="39" to="43" priority="3" type="highway.residential" spreadType="center" length="70.00" shape="83.89,30.72 -7.61,24.24">
        <lane id="21701_0" index="0" disallow="pedestrian tram rail_urban rail rail_electric rail_fast ship" speed="36.11" length="70.00" width="3.50" customShape="1" shape="83.89,30.72 81.18,30.34 74.15,29.48 68.60,29.12 56.46,29.04 41.80,29.34 14.01,30.54"/>
    </edge>
    <edge id="21702" from="43" to="31" priority="3" type="highway.residential" spreadType="center" length="70.00" shape="-7.36,20.75 83.76,27.17">
        <lane id="21702_0" index="0" disallow="pedestrian tram rail_urban rail rail_electric rail_fast ship" speed="36.11" length="70.00" width="3.50" customShape="1" shape="13.88,27.04 41.51,25.85 56.13,25.54 68.26,25.61 73.88,25.94 80.95,26.77 83.76,27.17"/>
    </edge>
    <edge id="22345" from="16" to="32" priority="3" type="highway.residential" spreadType="center" length="31.07">
        <lane id="22345_0" index="0" disallow="pedestrian tram rail_urban rail rail_electric rail_fast ship" speed="36.11" length="31.07" width="3.50" customShape="1" shape="-45.41,-90.11 -46.02,-92.37 -46.43,-94.98 -46.58,-97.61 -46.39,-100.24 -46.15,-101.54 -45.81,-102.81 -45.36,-104.06 -44.81,-105.25 -44.15,-106.39 -43.39,-107.48 -42.54,-108.49 -40.63,-110.31 -38.50,-111.85 -36.20,-113.15 -33.79,-114.23 -32.83,-114.58"/>
    </edge>
    <edge id="22902" from="38" to="34" priority="3" type="highway.residential" spreadType="center" length="25.56">
        <lane id="22902_0" index="0" disallow="pedestrian tram rail_urban rail rail_electric rail_fast ship" speed="36.11" length="25.56" width="3.50" customShape="1" shape="-31.72,-111.26 -32.39,-111.02 -34.46,-110.09 -36.42,-108.99 -38.21,-107.70 -39.80,-106.18 -40.46,-105.39 -41.07,-104.52 -41.60,-103.60 -42.04,-102.65 -42.41,-101.65 -42.68,-100.62 -42.87,-99.59 -43.04,-97.39 -42.91,-95.18 -42.56,-92.97 -42.07,-91.15"/>
    </edge>

    <junction id="14" type="dead_end" x="34.62" y="-72.86" incLanes="21529_0" intLanes="" shape="34.13,-74.55 35.10,-71.18" rightOfWay="edgePriority"/>
    <junction id="16" type="priority" x="-44.99" y="-88.55" incLanes="21559_0" intLanes=":16_0_0" shape="-46.15,-86.47 -42.82,-87.55 -43.72,-90.56 -47.09,-89.65" rightOfWay="edgePriority">
        <request index="0" response="0" foes="0" cont="0"/>
    </junction>
    <junction id="20" type="dead_end" x="-109.42" y="-63.66" incLanes="21634_0" intLanes="" shape="-111.08,-63.11 -107.75,-64.21" rightOfWay="edgePriority"/>
    <junction id="25" type="dead_end" x="-169.58" y="32.92" incLanes="21695_0" intLanes="" shape="-169.63,34.67 -169.53,31.17" rightOfWay="edgePriority"/>
    <junction id="31" type="dead_end" x="83.76" y="27.17" incLanes="21702_0" intLanes="" shape="84.01,25.44 83.52,28.90" rightOfWay="edgePriority"/>
    <junction id="32" type="priority" x="-31.31" y="-115.13" incLanes="22345_0" intLanes=":32_0_0" shape="-29.23,-113.97 -30.31,-117.30 -33.43,-116.23 -32.23,-112.94" rightOfWay="edgePriority">
        <request index="0" response="0" foes="0" cont="0"/>
    </junction>
    <junction id="33" type="dead_end" x="35.58" y="-69.50" incLanes="" intLanes="" shape="35.10,-71.18 36.06,-67.82" rightOfWay="edgePriority"/>
    <junction id="34" type="priority" x="-41.65" y="-89.59" incLanes="22902_0" intLanes=":34_0_0" shape="-42.81,-87.51 -39.48,-88.59 -40.38,-91.61 -43.76,-90.69" rightOfWay="edgePriority">
        <request index="0" response="0" foes="0" cont="0"/>
    </junction>
    <junction id="35" type="dead_end" x="-106.09" y="-64.75" incLanes="" intLanes="" shape="-107.75,-64.21 -104.43,-65.30" rightOfWay="edgePriority"/>
    <junction id="36" type="dead_end" x="-169.52" y="29.42" incLanes="" intLanes="" shape="-169.56,31.17 -169.47,27.67" rightOfWay="edgePriority"/>
    <junction id="37" type="dead_end" x="16.95" y="-130.85" incLanes="21692_0" intLanes="" shape="16.41,-132.51 17.49,-129.18" rightOfWay="edgePriority"/>
    <junction id="38" type="priority" x="-30.20" y="-111.82" incLanes="21693_0" intLanes=":38_0_0" shape="-28.12,-110.65 -29.20,-113.98 -32.31,-112.91 -31.12,-109.62" rightOfWay="edgePriority">
        <request index="0" response="0" foes="0" cont="0"/>
    </junction>
    <junction id="39" type="dead_end" x="83.89" y="30.72" incLanes="" intLanes="" shape="84.14,28.98 83.65,32.45" rightOfWay="edgePriority"/>
    <junction id="40" type="dead_end" x="18.04" y="-127.52" incLanes="" intLanes="" shape="17.49,-129.18 18.58,-125.85" rightOfWay="edgePriority"/>