<!-- generated on 2020-12-18 17:09:34.685920 by ipykernel_launcher.py v1_2_0+5214-53edc58fcd
-->
<connections>
	<connection contPos="-4.0" from="17" fromLane="0" keepClear="true" to="11" toLane="0"/>
	<connection contPos="-4.0" from="18" fromLane="0" keepClear="true" to="12" toLane="0"/>
	<connection contPos="-4.0" from="19" fromLane="0" keepClear="true" to="13" toLane="0"/>
</connections>
