<!-- generated on 2020-12-18 17:09:34.601071 by ipykernel_launcher.py v1_2_0+5214-53edc58fcd
-->
<nodes>
	<node id="1" type="from" x="0.0" y="14.1"/>
	<node id="2" type="to" x="40.0" y="14.1"/>
	<node id="3" type="from" x="0.0" y="17.1"/>
	<node id="4" type="to" x="40.0" y="17.1"/>
	<node id="5" type="from" x="0.0" y="20.1"/>
	<node id="6" type="to" x="40.0" y="20.1"/>
	<node id="7" type="from" x="40.0" y="23.1"/>
	<node id="8" type="to" x="0.0" y="23.1"/>
	<node id="9" type="from" x="40.0" y="26.1"/>
	<node id="10" type="to" x="0.0" y="26.1"/>
	<node id="11" type="from" x="40.0" y="29.1"/>
	<node id="12" type="to" x="0.0" y="29.1"/>
	<node id="13" type="to" x="54.5" y="14.1"/>
	<node id="14" type="to" x="54.5" y="17.1"/>
	<node id="15" type="to" x="54.5" y="20.1"/>
	<node id="16" type="from" x="54.5" y="23.1"/>
	<node id="17" type="from" x="54.5" y="26.1"/>
	<node id="18" type="from" x="54.5" y="29.1"/>
</nodes>
