<routes>
	<vehicle depart="0.1" departLane="0" departPos="21.0" departSpeed="3.0" id="1" type="bicycle">
		<route edges="8 9 10"/>
	</vehicle>
	<vehicle depart="0.1" departLane="0" departPos="17.5" departSpeed="0.0" id="2" type="passenger">
		<route edges="8"/>
	</vehicle>
	<vehicle depart="0.1" departLane="0" departPos="7.0" departSpeed="5.0" id="3" type="passenger">
		<route edges="9"/>
	</vehicle>
	<vehicle depart="0.1" departLane="0" departPos="24.0" departSpeed="10.0" id="4" type="passenger">
		<route edges="9 15"/>
	</vehicle>
	<vehicle depart="0.1" departLane="0" departPos="10.0" departSpeed="5.0" id="5" type="passenger">
		<route edges="11"/>
	</vehicle>
	<vehicle depart="0.1" departLane="0" departPos="25.0" departSpeed="5.0" id="6" type="passenger">
		<route edges="12"/>
	</vehicle>
	<vehicle depart="0.1" departLane="0" departPos="20.0" departSpeed="5.0" id="7" type="passenger">
		<route edges="13"/>
	</vehicle>
</routes>
