<routes>
	<vehicle depart="0.1" departLane="0" departPos="7.558692585562615" departSpeed="5.2785778" id="312" type="bicycle">
		<route edges=":37_3 59 68"/>
	</vehicle>
	<vehicle depart="0.1" departLane="0" departPos="28.437555164932718" departSpeed="2.3155785" id="31" type="passenger">
		<route edges="65 58"/>
	</vehicle>
	<vehicle depart="0.1" departLane="0" departPos="11.250306732811335" departSpeed="7.0308128" id="32" type="passenger">
		<route edges="402 400"/>
	</vehicle>
	<vehicle depart="0.1" departLane="0" departPos="57.85730744403311" departSpeed="0.1889995" id="33" type="passenger">
		<route edges="59 68"/>
	</vehicle>
	<vehicle depart="0.1" departLane="0" departPos="2.5" departSpeed="3.3460717" id="35" type="passenger">
		<route edges=":41_1 58"/>
	</vehicle>
	<vehicle depart="0.1" departLane="0" departPos="50.98472072482606" departSpeed="0.074821578" id="38" type="passenger">
		<route edges="59 64"/>
	</vehicle>
	<vehicle depart="0.1" departLane="0" departPos="48.50206058458548" departSpeed="0.001031981" id="311" type="passenger">
		<route edges="58 402"/>
	</vehicle>
	<vehicle depart="0.1" departLane="0" departPos="41.05425550403106" departSpeed="0.021549214" id="314" type="passenger">
		<route edges="58 402"/>
	</vehicle>
	<vehicle depart="0.1" departLane="0" departPos="20.25315514924967" departSpeed="1.2886521" id="315" type="passenger">
		<route edges="65 58"/>
	</vehicle>
	<vehicle depart="0.1" departLane="0" departPos="12.231757041161993" departSpeed="0.0" id="316" type="passenger">
		<route edges="403 55"/>
	</vehicle>
	<vehicle depart="0.1" departLane="0" departPos="55.797917826836446" departSpeed="4.5776724" id="318" type="passenger">
		<route edges="56 59 68"/>
	</vehicle>
	<vehicle depart="0.1" departLane="0" departPos="45.24984697049776" departSpeed="3.9775909" id="320" type="passenger">
		<route edges="56 59 68"/>
	</vehicle>
	<vehicle depart="0.1" departLane="0" departPos="33.80640999480515" departSpeed="0.15368225" id="321" type="passenger">
		<route edges="58 402"/>
	</vehicle>
	<vehicle depart="0.1" departLane="0" departPos="26.230975776019992" departSpeed="0.61417798" id="322" type="passenger">
		<route edges="58 402"/>
	</vehicle>
	<vehicle depart="0.1" departLane="0" departPos="14.339947126482917" departSpeed="0.0" id="323" type="passenger">
		<route edges="399 396"/>
	</vehicle>
	<vehicle depart="0.1" departLane="0" departPos="12.572974817397446" departSpeed="0.5181503" id="324" type="passenger">
		<route edges="65 58"/>
	</vehicle>
	<vehicle depart="0.1" departLane="0" departPos="17.35136078100408" departSpeed="1.4730799" id="326" type="passenger">
		<route edges="58 402"/>
	</vehicle>
	<vehicle depart="0.1" departLane="0" departPos="5.38725622056797" departSpeed="0.0033477336" id="327" type="passenger">
		<route edges="403 55"/>
	</vehicle>
	<vehicle depart="0.1" departLane="0" departPos="7.41719482858691" departSpeed="2.4471203" id="330" type="passenger">
		<route edges="58 402"/>
	</vehicle>
	<vehicle depart="0.1" departLane="0" departPos="15.775624488402297" departSpeed="3.949751" id="331" type="passenger">
		<route edges="56 59"/>
	</vehicle>
	<vehicle depart="0.1" departLane="0" departPos="8.698583419653424" departSpeed="3.280416" id="332" type="passenger">
		<route edges=":41_4 58 402"/>
	</vehicle>
	<vehicle depart="0.1" departLane="0" departPos="28.055017146361262" departSpeed="0.0" id="333" type="passenger">
		<route edges="397 403"/>
	</vehicle>
	<vehicle depart="0.1" departLane="0" departPos="2.5" departSpeed="4.1977325" id="334" type="passenger">
		<route edges="56 59"/>
	</vehicle>
	<vehicle depart="0.1" departLane="0" departPos="6.820875650760814" departSpeed="7.073195e-05" id="335" type="passenger">
		<route edges="399 396"/>
	</vehicle>
	<vehicle depart="0.1" departLane="0" departPos="2.5" departSpeed="4.2494447" id="337" type="passenger">
		<route edges="891"/>
	</vehicle>
	<vehicle depart="0.1" departLane="0" departPos="16.18485229712539" departSpeed="0.23207555" id="338" type="passenger">
		<route edges="397 403"/>
	</vehicle>
	<vehicle depart="0.1" departLane="0" departPos="25.367243452012282" departSpeed="4.1943571" id="339" type="passenger">
		<route edges="76 891"/>
	</vehicle>
	<vehicle depart="0.1" departLane="0" departPos="8.82850615635438" departSpeed="0.56088255" id="340" type="passenger">
		<route edges="397 403"/>
	</vehicle>
	<vehicle depart="0.1" departLane="0" departPos="52.47302999923988" departSpeed="9.7095268" id="341" type="passenger">
		<route edges="67 58"/>
	</vehicle>
	<vehicle depart="0.1" departLane="0" departPos="14.554159153134263" departSpeed="3.7375194" id="342" type="passenger">
		<route edges="76 56 59"/>
	</vehicle>
	<vehicle depart="0.1" departLane="0" departPos="6.310632899906581" departSpeed="2.0785373" id="343" type="passenger">
		<route edges="76 891"/>
	</vehicle>
	<vehicle depart="0.1" departLane="0" departPos="10.380895837327909" departSpeed="16.025221" id="344" type="passenger">
		<route edges="67 58"/>
	</vehicle>
	<vehicle depart="0.1" departLane="0" departPos="14.145441300720503" departSpeed="9.6355122" id="310" type="motorcycle">
		<route edges=":37_3 59 68"/>
	</vehicle>
	<vehicle depart="0.1" departLane="0" departPos="25.000063608930997" departSpeed="3.3065504" id="328" type="motorcycle">
		<route edges="56 59 68"/>
	</vehicle>
	<vehicle depart="0.1" departLane="0" departPos="20.947474908434813" departSpeed="0.041389078" id="336" type="motorcycle">
		<route edges="397 403"/>
	</vehicle>
	<vehicle depart="0.1" departLane="0" departPos="58.031182484715906" departSpeed="0.0" id="30" type="truck">
		<route edges="58 402"/>
	</vehicle>
	<vehicle depart="0.1" departLane="0" departPos="6.265216735738781" departSpeed="0.0" id="39" type="truck">
		<route edges="74 56"/>
	</vehicle>
</routes>
