<routes>
	<vehicle depart="0.1" departLane="0" departPos="24.531502032013897" departSpeed="2.1144901" id="37" type="passenger">
		<route edges=":47_0 45985"/>
	</vehicle>
	<vehicle depart="0.1" departLane="0" departPos="42.18312074873347" departSpeed="2.9529494e-05" id="322" type="passenger">
		<route edges="45985 45982"/>
	</vehicle>
	<vehicle depart="0.1" departLane="0" departPos="29.678260916555743" departSpeed="0.0038161324" id="340" type="passenger">
		<route edges="45985 45982"/>
	</vehicle>
	<vehicle depart="0.1" departLane="0" departPos="22.123936715736843" departSpeed="0.055921686" id="347" type="passenger">
		<route edges="45985 45982"/>
	</vehicle>
	<vehicle depart="0.1" departLane="0" departPos="41.95642320610744" departSpeed="9.1474355" id="348" type="passenger">
		<route edges="45986 45989"/>
	</vehicle>
	<vehicle depart="0.1" departLane="0" departPos="14.297351029976419" departSpeed="0.34181538" id="354" type="passenger">
		<route edges="45985 45982"/>
	</vehicle>
	<vehicle depart="0.1" departLane="0" departPos="5.731611729924648" departSpeed="1.0573103" id="360" type="passenger">
		<route edges="45985 45982"/>
	</vehicle>
	<vehicle depart="0.1" departLane="0" departPos="21.189030092631786" departSpeed="16.306423" id="364" type="passenger">
		<route edges=":45_2 45986 45989"/>
	</vehicle>
	<vehicle depart="0.1" departLane="0" departPos="34.6823301783272" departSpeed="0.00045190828" id="336" type="motorcycle">
		<route edges="45985 45982"/>
	</vehicle>
</routes>
