<!-- generated on 2020-12-18 16:29:39.511993 by ipykernel_launcher.py v1_2_0+5214-53edc58fcd
-->
<connections>
	<connection contPos="-4.0" from="87" fromLane="0" keepClear="true" to="108" toLane="0"/>
	<connection contPos="-4.0" from="87" fromLane="0" keepClear="true" to="116" toLane="0"/>
	<connection contPos="-4.0" from="88" fromLane="0" keepClear="true" to="114" toLane="0"/>
	<connection contPos="-4.0" from="91" fromLane="0" keepClear="true" to="117" toLane="0"/>
	<connection contPos="-4.0" from="91" fromLane="0" keepClear="true" to="111" toLane="0"/>
	<connection contPos="-4.0" from="92" fromLane="0" keepClear="true" to="105" toLane="0"/>
	<connection contPos="-4.0" from="94" fromLane="0" keepClear="true" to="115" toLane="0"/>
	<connection contPos="-4.0" from="94" fromLane="0" keepClear="true" to="107" toLane="0"/>
	<connection contPos="-4.0" from="95" fromLane="0" keepClear="true" to="112" toLane="0"/>
	<connection contPos="-4.0" from="96" fromLane="0" keepClear="true" to="118" toLane="0"/>
	<connection contPos="-4.0" from="96" fromLane="0" keepClear="true" to="110" toLane="0"/>
	<connection contPos="-4.0" from="97" fromLane="0" keepClear="true" to="106" toLane="0"/>
	<connection contPos="-4.0" from="98" fromLane="0" keepClear="true" to="119" toLane="0"/>
	<connection contPos="-4.0" from="98" fromLane="0" keepClear="true" to="113" toLane="0"/>
	<connection contPos="-4.0" from="100" fromLane="0" keepClear="true" to="104" toLane="0"/>
	<connection contPos="-4.0" from="102" fromLane="0" keepClear="true" to="109" toLane="0"/>
	<connection contPos="-4.0" from="102" fromLane="0" keepClear="true" to="103" toLane="0"/>
	<connection contPos="-4.0" from="103" fromLane="0" keepClear="true" to="101" toLane="0"/>
	<connection contPos="-4.0" from="104" fromLane="0" keepClear="true" to="99" toLane="0"/>
	<connection contPos="-4.0" from="105" fromLane="0" keepClear="true" to="98" toLane="0"/>
	<connection contPos="-4.0" from="106" fromLane="0" keepClear="true" to="93" toLane="0"/>
	<connection contPos="-4.0" from="107" fromLane="0" keepClear="true" to="90" toLane="0"/>
	<connection contPos="-4.0" from="108" fromLane="0" keepClear="true" to="89" toLane="0"/>
	<connection contPos="-4.0" from="109" fromLane="0" keepClear="true" to="99" toLane="0"/>
	<connection contPos="-4.0" from="110" fromLane="0" keepClear="true" to="87" toLane="0"/>
	<connection contPos="-4.0" from="111" fromLane="0" keepClear="true" to="95" toLane="0"/>
	<connection contPos="-4.0" from="112" fromLane="0" keepClear="true" to="87" toLane="0"/>
	<connection contPos="-4.0" from="113" fromLane="0" keepClear="true" to="95" toLane="0"/>
	<connection contPos="-4.0" from="114" fromLane="0" keepClear="true" to="102" toLane="0"/>
	<connection contPos="-4.0" from="115" fromLane="0" keepClear="true" to="97" toLane="0"/>
	<connection contPos="-4.0" from="116" fromLane="0" keepClear="true" to="102" toLane="0"/>
	<connection contPos="-4.0" from="117" fromLane="0" keepClear="true" to="97" toLane="0"/>
	<connection contPos="-4.0" from="118" fromLane="0" keepClear="true" to="94" toLane="0"/>
	<connection contPos="-4.0" from="119" fromLane="0" keepClear="true" to="90" toLane="0"/>
</connections>
