<routes>
	<vehicle depart="0.1" departLane="0" departPos="0" departSpeed="2.9806" id="30" type="passenger">
		<route edges="100 104 99"/>
	</vehicle>
	<vehicle depart="0.1" departLane="0" departPos="0" departSpeed="2.8239" id="31" type="passenger">
		<route edges="101"/>
	</vehicle>
	<vehicle depart="0.1" departLane="0" departPos="0" departSpeed="2.7443" id="33" type="passenger">
		<route edges="101"/>
	</vehicle>
	<vehicle depart="0.1" departLane="0" departPos="0" departSpeed="7.6572" id="34" type="passenger">
		<route edges="87 116 108 89"/>
	</vehicle>
	<vehicle depart="0.1" departLane="0" departPos="88.18077157409108" departSpeed="14.0236" id="36" type="passenger">
		<route edges="89"/>
	</vehicle>
	<vehicle depart="0.1" departLane="0" departPos="0" departSpeed="11.4386" id="39" type="passenger">
		<route edges="89"/>
	</vehicle>
	<vehicle depart="0.1" departLane="0" departPos="0" departSpeed="2.5967" id="311" type="passenger">
		<route edges="100 104 99"/>
	</vehicle>
	<vehicle depart="0.1" departLane="0" departPos="0" departSpeed="11.398" id="312" type="passenger">
		<route edges="89"/>
	</vehicle>
	<vehicle depart="0.1" departLane="0" departPos="29.94555644099766" departSpeed="2.1961" id="313" type="passenger">
		<route edges="92 105 98 113 95 112 87 108 89"/>
	</vehicle>
	<vehicle depart="0.1" departLane="0" departPos="0" departSpeed="2.3766" id="314" type="passenger">
		<route edges="101"/>
	</vehicle>
	<vehicle depart="0.1" departLane="0" departPos="4.5559228772959" departSpeed="2.7095" id="315" type="passenger">
		<route edges="115 97 106 93"/>
	</vehicle>
	<vehicle depart="0.1" departLane="0" departPos="7.694623355783337" departSpeed="2.5261" id="316" type="passenger">
		<route edges="94 115 97 106 93"/>
	</vehicle>
	<vehicle depart="0.1" departLane="0" departPos="0" departSpeed="2.2938" id="317" type="passenger">
		<route edges="101"/>
	</vehicle>
	<vehicle depart="0.1" departLane="0" departPos="11.755133177254832" departSpeed="0.0" id="318" type="passenger">
		<route edges="96 110 118 94 115 97 106 93"/>
	</vehicle>
	<vehicle depart="0.1" departLane="0" departPos="0" departSpeed="0.0074" id="319" type="passenger">
		<route edges="96 110 87 116 108 89"/>
	</vehicle>
	<vehicle depart="0.1" departLane="0" departPos="0" departSpeed="2.2148" id="320" type="passenger">
		<route edges="101"/>
	</vehicle>
	<vehicle depart="0.1" departLane="0" departPos="0" departSpeed="2.7918" id="321" type="passenger">
		<route edges="95 112 110 87 116 108 89"/>
	</vehicle>
	<vehicle depart="0.1" departLane="0" departPos="0" departSpeed="0.5881" id="322" type="passenger">
		<route edges="101"/>
	</vehicle>
</routes>
