<?xml version="1.0" encoding="UTF-8"?>

<!-- generated on Fri Dec 18 16:29:39 2020 by Eclipse SUMO netconvert Version 1.8.0
<configuration xmlns:xsi="http://www.w3.org/2001/XMLSchema-instance" xsi:noNamespaceSchemaLocation="http://sumo.dlr.de/xsd/netconvertConfiguration.xsd">

    <input>
        <node-files value="./converted_scenarios/SUMO/CHN_Sha-9_1_I-1-1/nodes.net.xml"/>
        <edge-files value="./converted_scenarios/SUMO/CHN_Sha-9_1_I-1-1/edges.net.xml"/>
        <connection-files value="./converted_scenarios/SUMO/CHN_Sha-9_1_I-1-1/_connections.net.xml"/>
        <tllogic-files value="./converted_scenarios/SUMO/CHN_Sha-9_1_I-1-1/_tll.net.xml"/>
    </input>

    <output>
        <output-file value="./converted_scenarios/SUMO/CHN_Sha-9_1_I-1-1/CHN_Sha-9_1_I-1-1.net.xml"/>
    </output>

    <processing>
        <plain.extend-edge-shape value="true"/>
        <geometry.remove.keep-edges.explicit value="true"/>
        <geometry.avoid-overlap value="true"/>
        <offset.disable-normalization value="true"/>
    </processing>

    <junctions>
        <no-turnarounds value="true"/>
        <junctions.internal-link-detail value="20"/>
    </junctions>

    <report>
        <aggregate-warnings value="5"/>
    </report>

    <random_number>
        <seed value="1234"/>
    </random_number>

</configuration>
-->

<net version="1.6" junctionCornerDetail="5" junctionLinkDetail="20" limitTurnSpeed="5.50" xmlns:xsi="http://www.w3.org/2001/XMLSchema-instance" xsi:noNamespaceSchemaLocation="http://sumo.dlr.de/xsd/net_file.xsd">

    <location netOffset="0.00,0.00" convBoundary="-12.75,-77.57,111.84,52.91" origBoundary="-12.75,-77.57,111.84,52.91" projParameter="!"/>

    <edge id=":1_0" function="internal">
        <lane id=":1_0_0" index="0" disallow="bus truck rail_fast" speed="8.64" length="10.21" width="2.50" shape="-8.42,35.60 -8.79,35.37 -9.15,35.12 -9.48,34.84 -9.80,34.54 -10.09,34.20 -10.37,33.84 -10.63,33.45 -10.86,33.03 -11.08,32.58 -11.28,32.11 -11.46,31.61 -11.62,31.08 -11.76,30.53 -11.88,29.94 -11.98,29.33 -12.06,28.69 -12.12,28.03 -12.16,27.33 -12.19,26.61"/>
    </edge>
    <edge id=":1_1" function="internal">
        <lane id=":1_1_0" index="0" disallow="bus truck rail_fast" speed="36.11" length="7.67" width="2.50" shape="-12.23,34.28 -12.19,26.61"/>
    </edge>
    <edge id=":10_0" function="internal">
        <lane id=":10_0_0" index="0" disallow="rail_fast" speed="36.11" length="8.79" width="2.50" shape="23.78,45.85 15.37,43.30"/>
    </edge>
    <edge id=":10_1" function="internal">
        <lane id=":10_1_0" index="0" disallow="bus truck rail_fast" speed="8.27" length="9.86" width="2.50" shape="23.78,45.85 23.07,45.63 22.39,45.39 21.75,45.15 21.14,44.90 20.57,44.65 20.03,44.38 19.53,44.11 19.06,43.83 18.63,43.55 18.23,43.25 17.87,42.95 17.54,42.64 17.25,42.32 16.99,41.99 16.76,41.66 16.58,41.32 16.42,40.97 16.30,40.61 16.22,40.25"/>
    </edge>
    <edge id=":12_0" function="internal">
        <lane id=":12_0_0" index="0" disallow="bus truck rail_fast" speed="36.11" length="3.39" width="2.50" shape="30.47,18.22 30.23,18.14 30.02,18.06 29.82,17.98 29.65,17.92 29.49,17.85 29.34,17.80 29.20,17.74 29.07,17.69 28.95,17.65 28.82,17.60 28.69,17.56 28.56,17.52 28.42,17.48 28.26,17.44 28.10,17.40 27.92,17.35 27.71,17.31 27.49,17.27 27.24,17.22"/>
    </edge>
    <edge id=":13_0" function="internal">
        <lane id=":13_0_0" index="0" disallow="bus truck rail_fast" speed="36.11" length="3.39" width="2.50" shape="28.08,14.82 28.33,14.87 28.55,14.92 28.75,14.96 28.94,15.00 29.10,15.05 29.25,15.09 29.39,15.13 29.52,15.18 29.65,15.22 29.78,15.27 29.90,15.32 30.03,15.37 30.17,15.43 30.32,15.49 30.48,15.55 30.65,15.62 30.84,15.70 31.06,15.78 31.30,15.86"/>
    </edge>
    <edge id=":15_0" function="internal">
        <lane id=":15_0_0" index="0" disallow="bus truck rail_fast" speed="36.11" length="4.00" width="2.50" shape="-6.49,34.23 -6.19,34.24 -5.93,34.26 -5.68,34.28 -5.47,34.30 -5.27,34.34 -5.09,34.37 -4.92,34.41 -4.76,34.46 -4.61,34.50 -4.46,34.56 -4.31,34.62 -4.15,34.68 -3.99,34.75 -3.81,34.82 -3.62,34.89 -3.41,34.97 -3.18,35.05 -2.93,35.14 -2.64,35.22"/>
    </edge>
    <edge id=":16_0" function="internal">
        <lane id=":16_0_0" index="0" disallow="bus truck rail_fast" speed="6.28" length="8.05" width="2.50" shape="7.12,38.19 7.83,38.39 8.50,38.58 9.14,38.74 9.74,38.89 10.31,39.01 10.84,39.10 11.35,39.18 11.81,39.23 12.25,39.26 12.65,39.27 13.01,39.26 13.35,39.23 13.64,39.17 13.91,39.09 14.14,38.99 14.34,38.87 14.50,38.72 14.63,38.56 14.73,38.37"/>
    </edge>
    <edge id=":16_1" function="internal">
        <lane id=":16_1_0" index="0" disallow="rail_fast" speed="36.11" length="9.14" width="2.50" shape="7.12,38.19 15.87,40.84"/>
    </edge>
    <edge id=":17_0" function="internal">
        <lane id=":17_0_0" index="0" disallow="rail_fast" speed="36.11" length="9.14" width="2.50" shape="15.18,43.24 6.44,40.59"/>
    </edge>
    <edge id=":17_1" function="internal">
        <lane id=":17_1_0" index="0" disallow="bus truck rail_fast" speed="9.68" length="9.75" width="2.50" shape="15.89,40.22 15.51,40.44 15.13,40.64 14.73,40.81 14.31,40.96 13.88,41.09 13.44,41.20 12.99,41.29 12.52,41.35 12.03,41.39 11.54,41.41 11.03,41.41 10.50,41.38 9.96,41.34 9.41,41.27 8.84,41.18 8.26,41.06 7.67,40.93 7.06,40.77 6.44,40.59"/>
    </edge>
    <edge id=":18_0" function="internal">
        <lane id=":18_0_0" index="0" disallow="bus truck rail_fast" speed="36.11" length="2.81" width="2.50" shape="-3.92,37.45 -6.58,36.55"/>
    </edge>
    <edge id=":2_0" function="internal">
        <lane id=":2_0_0" index="0" disallow="bus truck rail_fast" speed="36.11" length="9.16" width="2.50" shape="-12.36,-7.51 -12.33,-8.20 -12.31,-8.82 -12.30,-9.37 -12.28,-9.88 -12.27,-10.35 -12.27,-10.77 -12.26,-11.17 -12.24,-11.55 -12.22,-11.92 -12.20,-12.28 -12.17,-12.65 -12.12,-13.02 -12.07,-13.42 -12.00,-13.84 -11.92,-14.29 -11.82,-14.78 -11.71,-15.33 -11.57,-15.93 -11.41,-16.60"/>
    </edge>
    <edge id=":2_1" function="internal">
        <lane id=":2_1_0" index="0" disallow="bus truck rail_fast" speed="7.43" length="11.83" width="2.50" shape="-12.36,-7.51 -12.30,-8.43 -12.22,-9.29 -12.11,-10.11 -11.98,-10.88 -11.81,-11.59 -11.62,-12.26 -11.41,-12.88 -11.16,-13.45 -10.89,-13.97 -10.59,-14.45 -10.27,-14.87 -9.92,-15.24 -9.54,-15.57 -9.13,-15.84 -8.70,-16.07 -8.24,-16.25 -7.75,-16.37 -7.23,-16.45 -6.69,-16.48"/>
    </edge>
    <edge id=":20_0" function="internal">
        <lane id=":20_0_0" index="0" disallow="bus truck rail_fast" speed="36.11" length="8.51" width="2.50" shape="-12.42,42.99 -12.24,34.48"/>
    </edge>
    <edge id=":20_1" function="internal">
        <lane id=":20_1_0" index="0" disallow="bus truck rail_fast" speed="7.61" length="10.62" width="2.50" shape="-12.42,42.99 -12.38,42.18 -12.32,41.40 -12.24,40.67 -12.14,39.98 -12.01,39.32 -11.86,38.71 -11.69,38.13 -11.50,37.59 -11.28,37.09 -11.05,36.63 -10.79,36.21 -10.51,35.82 -10.21,35.48 -9.89,35.17 -9.54,34.91 -9.17,34.68 -8.78,34.49 -8.37,34.34 -7.94,34.23"/>
    </edge>
    <edge id=":21_0" function="internal">
        <lane id=":21_0_0" index="0" disallow="bus truck rail_fast" speed="17.77" length="7.65" width="2.50" shape="16.18,40.05 16.08,39.49 16.00,38.99 15.93,38.53 15.88,38.11 15.84,37.73 15.81,37.38 15.80,37.04 15.80,36.73 15.82,36.42 15.84,36.12 15.88,35.81 15.93,35.49 16.00,35.16 16.07,34.81 16.16,34.43 16.25,34.02 16.35,33.56 16.47,33.06 16.59,32.51"/>
    </edge>
    <edge id=":21_1" function="internal">
        <lane id=":21_1_0" index="0" disallow="bus truck rail_fast" speed="36.11" length="5.96" width="2.50" shape="14.80,38.18 14.96,37.77 15.11,37.39 15.24,37.05 15.37,36.75 15.48,36.47 15.57,36.21 15.67,35.96 15.75,35.73 15.83,35.51 15.90,35.28 15.97,35.06 16.04,34.82 16.11,34.57 16.18,34.30 16.25,34.01 16.33,33.69 16.41,33.33 16.50,32.94 16.59,32.51"/>
    </edge>
    <edge id=":22_0" function="internal">
        <lane id=":22_0_0" index="0" disallow="bus truck rail_fast" speed="36.11" length="3.49" width="2.50" shape="18.73,22.83 18.78,22.58 18.83,22.34 18.87,22.14 18.91,21.95 18.94,21.77 18.97,21.61 18.99,21.46 19.02,21.32 19.04,21.18 19.07,21.04 19.10,20.91 19.14,20.77 19.18,20.62 19.23,20.47 19.28,20.30 19.34,20.12 19.42,19.92 19.50,19.70 19.60,19.46"/>
    </edge>
    <edge id=":23_0" function="internal">
        <lane id=":23_0_0" index="0" disallow="bus truck rail_fast" speed="36.11" length="0.10" width="2.50" shape="21.54,21.70 21.54,21.70"/>
    </edge>
    <edge id=":24_0" function="internal">
        <lane id=":24_0_0" index="0" disallow="bus truck rail_fast" speed="7.42" length="6.71" width="2.50" shape="18.99,33.24 18.86,33.83 18.75,34.40 18.64,34.94 18.54,35.45 18.46,35.93 18.39,36.39 18.33,36.82 18.28,37.22 18.24,37.60 18.21,37.94 18.20,38.26 18.19,38.55 18.20,38.82 18.22,39.05 18.24,39.26 18.29,39.44 18.34,39.60 18.40,39.72 18.47,39.82"/>
    </edge>
    <edge id=":24_1" function="internal">
        <lane id=":24_1_0" index="0" disallow="bus truck rail_fast" speed="9.08" length="7.61" width="2.50" shape="18.99,33.24 18.86,33.84 18.72,34.41 18.58,34.96 18.43,35.48 18.29,35.98 18.14,36.45 17.99,36.89 17.84,37.30 17.69,37.69 17.54,38.05 17.38,38.39 17.22,38.70 17.06,38.98 16.90,39.24 16.73,39.46 16.57,39.67 16.40,39.84 16.23,39.99 16.05,40.11"/>
    </edge>
    <edge id=":25_0" function="internal">
        <lane id=":25_0_0" index="0" disallow="bus truck rail_fast" speed="7.81" length="10.15" width="2.50" shape="-4.11,-29.42 -4.47,-29.67 -4.79,-29.95 -5.09,-30.25 -5.36,-30.58 -5.60,-30.94 -5.81,-31.32 -5.99,-31.73 -6.15,-32.17 -6.27,-32.64 -6.37,-33.13 -6.44,-33.64 -6.48,-34.19 -6.49,-34.76 -6.47,-35.36 -6.42,-35.99 -6.35,-36.64 -6.25,-37.32 -6.12,-38.03 -5.96,-38.76"/>
    </edge>
    <edge id=":25_1" function="internal">
        <lane id=":25_1_0" index="0" disallow="rail_fast" speed="36.11" length="7.64" width="2.50" shape="-7.78,-31.34 -5.96,-38.76"/>
    </edge>
    <edge id=":28_0" function="internal">
        <lane id=":28_0_0" index="0" disallow="bus truck rail_fast" speed="36.11" length="3.06" width="2.50" shape="-0.33,-27.89 -0.55,-27.96 -0.75,-28.02 -0.93,-28.07 -1.09,-28.12 -1.24,-28.17 -1.37,-28.21 -1.50,-28.25 -1.62,-28.29 -1.74,-28.33 -1.85,-28.37 -1.96,-28.41 -2.08,-28.46 -2.21,-28.50 -2.34,-28.56 -2.48,-28.61 -2.64,-28.68 -2.81,-28.74 -3.00,-28.82 -3.22,-28.91"/>
    </edge>
    <edge id=":29_0" function="internal">
        <lane id=":29_0_0" index="0" disallow="bus truck rail_fast" speed="36.11" length="3.36" width="2.50" shape="-2.73,-31.05 -2.48,-31.00 -2.26,-30.96 -2.06,-30.92 -1.88,-30.88 -1.71,-30.85 -1.56,-30.81 -1.42,-30.78 -1.28,-30.75 -1.15,-30.72 -1.02,-30.69 -0.89,-30.66 -0.76,-30.62 -0.62,-30.58 -0.47,-30.54 -0.30,-30.49 -0.12,-30.44 0.07,-30.38 0.29,-30.31 0.53,-30.24"/>
    </edge>
    <edge id=":31_0" function="internal">
        <lane id=":31_0_0" index="0" disallow="bus truck rail_fast" speed="7.64" length="10.15" width="2.50" shape="-7.47,-14.64 -7.87,-14.90 -8.24,-15.19 -8.58,-15.50 -8.88,-15.84 -9.16,-16.20 -9.40,-16.59 -9.61,-17.00 -9.79,-17.43 -9.93,-17.89 -10.05,-18.37 -10.13,-18.88 -10.18,-19.40 -10.20,-19.96 -10.19,-20.54 -10.15,-21.14 -10.08,-21.76 -9.97,-22.41 -9.83,-23.09 -9.66,-23.78"/>
    </edge>
    <edge id=":31_1" function="internal">
        <lane id=":31_1_0" index="0" disallow="bus truck rail_fast" speed="36.11" length="7.20" width="2.50" shape="-11.37,-16.79 -9.66,-23.78"/>
    </edge>
    <edge id=":32_0" function="internal">
        <lane id=":32_0_0" index="0" disallow="rail_fast" speed="36.11" length="7.39" width="2.50" shape="-9.61,-23.98 -7.82,-31.14"/>
    </edge>
    <edge id=":32_1" function="internal">
        <lane id=":32_1_0" index="0" disallow="bus truck rail_fast" speed="7.50" length="9.88" width="2.50" shape="-9.61,-23.98 -9.41,-24.69 -9.20,-25.37 -8.98,-26.01 -8.75,-26.61 -8.50,-27.17 -8.24,-27.70 -7.97,-28.19 -7.69,-28.63 -7.39,-29.05 -7.08,-29.42 -6.76,-29.75 -6.43,-30.05 -6.08,-30.31 -5.72,-30.53 -5.35,-30.71 -4.97,-30.85 -4.58,-30.96 -4.17,-31.03 -3.75,-31.06"/>
    </edge>
    <edge id=":4_0" function="internal">
        <lane id=":4_0_0" index="0" disallow="bus truck rail_fast" speed="36.11" length="3.14" width="2.50" shape="-3.86,-13.25 -6.82,-14.28"/>
    </edge>
    <edge id=":5_0" function="internal">
        <lane id=":5_0_0" index="0" disallow="bus truck rail_fast" speed="24.25" length="4.03" width="2.50" shape="-6.59,-16.48 -6.29,-16.48 -6.02,-16.47 -5.78,-16.46 -5.56,-16.44 -5.37,-16.41 -5.18,-16.38 -5.01,-16.34 -4.85,-16.30 -4.70,-16.25 -4.55,-16.19 -4.39,-16.13 -4.24,-16.07 -4.07,-16.00 -3.90,-15.93 -3.70,-15.85 -3.49,-15.78 -3.26,-15.69 -3.00,-15.61 -2.72,-15.52"/>
    </edge>
    <edge id=":7_0" function="internal">
        <lane id=":7_0_0" index="0" disallow="bus truck rail_fast" speed="12.45" length="7.05" width="2.50" shape="18.61,39.97 18.97,40.34 19.30,40.68 19.60,40.98 19.88,41.25 20.14,41.49 20.39,41.70 20.63,41.89 20.87,42.06 21.11,42.21 21.36,42.35 21.61,42.48 21.88,42.60 22.17,42.71 22.48,42.83 22.82,42.94 23.20,43.06 23.61,43.19 24.06,43.32 24.55,43.47"/>
    </edge>
    <edge id=":7_1" function="internal">
        <lane id=":7_1_0" index="0" disallow="rail_fast" speed="36.11" length="8.88" width="2.50" shape="16.06,40.90 24.55,43.47"/>
    </edge>

    <edge id="100" from="27" to="28" priority="1" spreadType="center" length="117.80">
        <lane id="100_0" index="0" disallow="bus truck rail_fast" speed="36.11" length="117.80" width="2.50" customShape="1" shape="111.25,4.73 100.49,2.11 86.91,-1.66 -0.33,-27.89"/>
    </edge>
    <edge id="101" from="29" to="30" priority="1" spreadType="center" length="117.67">
        <lane id="101_0" index="0" disallow="bus truck rail_fast" speed="36.11" length="117.67" width="2.50" customShape="1" shape="0.53,-30.24 87.56,-4.07 101.11,-0.31 111.84,2.30"/>
    </edge>
    <edge id="102" from="31" to="32" priority="1" spreadType="center" length="2.01">
        <lane id="102_0" index="0" disallow="rail_fast" speed="36.11" length="2.01" width="2.50" customShape="1" shape="-9.66,-23.78 -9.61,-23.98"/>
    </edge>
    <edge id="103" from="32" to="29" priority="1" spreadType="center" length="11.72">
        <lane id="103_0" index="0" disallow="bus truck rail_fast" speed="36.11" length="11.72" width="2.50" customShape="1" shape="-3.75,-31.06 -2.89,-31.08 -2.73,-31.05"/>
    </edge>
    <edge id="104" from="28" to="25" priority="1" spreadType="center" length="11.30">
        <lane id="104_0" index="0" disallow="bus truck rail_fast" speed="36.11" length="11.30" width="2.50" customShape="1" shape="-3.22,-28.91 -3.45,-29.00 -4.11,-29.42"/>
    </edge>
    <edge id="105" from="12" to="23" priority="1" spreadType="center" length="9.92">
        <lane id="105_0" index="0" disallow="bus truck rail_fast" speed="36.11" length="9.92" width="2.50" customShape="1" shape="27.24,17.22 26.74,17.12 25.63,17.11 24.56,17.35 23.60,17.89 22.82,18.67 22.24,19.61 21.83,20.63 21.54,21.70"/>
    </edge>
    <edge id="106" from="22" to="13" priority="1" spreadType="center" length="14.20">
        <lane id="106_0" index="0" disallow="bus truck rail_fast" speed="36.11" length="14.20" width="2.50" customShape="1" shape="19.60,19.46 20.07,18.31 20.91,16.95 22.09,15.77 23.58,14.95 25.21,14.58 26.81,14.59 28.08,14.82"/>
    </edge>
    <edge id="107" from="16" to="7" priority="1" spreadType="center" length="14.65">
        <lane id="107_0" index="0" disallow="rail_fast" speed="36.11" length="14.65" width="2.50" customShape="1" shape="15.87,40.84 16.06,40.90"/>
    </edge>
    <edge id="108" from="2" to="5" priority="1" spreadType="center" length="12.40">
        <lane id="108_0" index="0" disallow="bus truck rail_fast" speed="36.11" length="12.40" width="2.50" customShape="1" shape="-6.69,-16.48 -6.59,-16.48"/>
    </edge>
    <edge id="109" from="32" to="25" priority="1" spreadType="center" length="12.80">
        <lane id="109_0" index="0" disallow="rail_fast" speed="36.11" length="12.80" width="2.50" customShape="1" shape="-7.82,-31.14 -7.78,-31.34"/>
    </edge>
    <edge id="110" from="20" to="1" priority="1" spreadType="center" length="13.01">
        <lane id="110_0" index="0" disallow="bus truck rail_fast" speed="36.11" length="13.01" width="2.50" customShape="1" shape="-12.24,34.48 -12.23,34.28"/>
    </edge>
    <edge id="111" from="10" to="17" priority="1" spreadType="center" length="14.61">
        <lane id="111_0" index="0" disallow="rail_fast" speed="36.11" length="14.61" width="2.50" customShape="1" shape="15.37,43.30 15.18,43.24"/>
    </edge>
    <edge id="112" from="18" to="1" priority="1" spreadType="center" length="12.16">
        <lane id="112_0" index="0" disallow="bus truck rail_fast" speed="36.11" length="12.16" width="2.50" customShape="1" shape="-6.58,36.55 -6.90,36.43 -8.42,35.60"/>
    </edge>
    <edge id="113" from="24" to="17" priority="1" spreadType="center" length="14.33">
        <lane id="113_0" index="0" disallow="bus truck rail_fast" speed="36.11" length="14.33" width="2.50" customShape="1" shape="16.05,40.11 15.89,40.22"/>
    </edge>
    <edge id="114" from="4" to="31" priority="1" spreadType="center" length="11.66">
        <lane id="114_0" index="0" disallow="bus truck rail_fast" speed="36.11" length="11.66" width="2.50" customShape="1" shape="-6.82,-14.28 -6.99,-14.34 -7.47,-14.64"/>
    </edge>
    <edge id="115" from="16" to="21" priority="1" spreadType="center" length="10.17">
        <lane id="115_0" index="0" disallow="bus truck rail_fast" speed="36.11" length="10.17" width="2.50" customShape="1" shape="14.73,38.37 14.80,38.18"/>
    </edge>
    <edge id="116" from="2" to="31" priority="1" spreadType="center" length="13.77">
        <lane id="116_0" index="0" disallow="bus truck rail_fast" speed="36.11" length="13.77" width="2.50" customShape="1" shape="-11.41,-16.60 -11.37,-16.79"/>
    </edge>
    <edge id="117" from="10" to="21" priority="1" spreadType="center" length="14.25">
        <lane id="117_0" index="0" disallow="bus truck rail_fast" speed="36.11" length="14.25" width="2.50" customShape="1" shape="16.22,40.25 16.18,40.05"/>
    </edge>
    <edge id="118" from="20" to="15" priority="1" spreadType="center" length="12.52">
        <lane id="118_0" index="0" disallow="bus truck rail_fast" speed="36.11" length="12.52" width="2.50" customShape="1" shape="-7.94,34.23 -7.79,34.20 -6.49,34.23"/>
    </edge>
    <edge id="119" from="24" to="7" priority="1" spreadType="center" length="10.50">
        <lane id="119_0" index="0" disallow="bus truck rail_fast" speed="36.11" length="10.50" width="2.50" customShape="1" shape="18.47,39.82 18.61,39.97"/>
    </edge>
    <edge id="87" from="1" to="2" priority="1" spreadType="center" length="37.53">
        <lane id="87_0" index="0" disallow="bus truck rail_fast" speed="36.11" length="37.53" width="2.50" customShape="1" shape="-12.19,26.61 -12.59,4.32 -12.43,-5.82 -12.36,-7.51"/>
    </edge>
    <edge id="88" from="3" to="4" priority="1" spreadType="center" length="117.88">
        <lane id="88_0" index="0" disallow="rail_fast" speed="36.11" length="117.88" width="2.50" customShape="1" shape="107.57,20.10 51.10,3.20 -3.86,-13.25"/>
    </edge>
    <edge id="89" from="5" to="6" priority="1" spreadType="center" length="117.88">
        <lane id="89_0" index="0" disallow="rail_fast" speed="36.11" length="117.88" width="2.50" customShape="1" shape="-2.72,-15.52 51.82,0.80 108.29,17.70"/>
    </edge>
    <edge id="90" from="7" to="8" priority="1" spreadType="center" length="12.10">
        <lane id="90_0" index="0" disallow="rail_fast" speed="36.11" length="12.10" width="2.50" customShape="1" shape="24.55,43.47 28.68,44.72 34.49,46.48"/>
    </edge>
    <edge id="91" from="9" to="10" priority="1" spreadType="center" length="12.12">
        <lane id="91_0" index="0" disallow="rail_fast" speed="36.11" length="12.12" width="2.50" customShape="1" shape="33.76,48.88 27.96,47.12 23.78,45.85"/>
    </edge>
    <edge id="92" from="11" to="12" priority="1" spreadType="center" length="41.09">
        <lane id="92_0" index="0" disallow="bus truck rail_fast" speed="36.11" length="41.09" width="2.50" customShape="1" shape="67.94,30.36 54.37,26.18 39.87,21.56 30.47,18.22"/>
    </edge>
    <edge id="93" from="13" to="14" priority="1" spreadType="center" length="40.99">
        <lane id="93_0" index="0" disallow="bus truck rail_fast" speed="36.11" length="40.99" width="2.50" customShape="1" shape="31.30,15.86 40.69,19.20 55.14,23.80 68.68,27.97"/>
    </edge>
    <edge id="94" from="15" to="16" priority="1" spreadType="center" length="14.04">
        <lane id="94_0" index="0" disallow="rail_fast" speed="36.11" length="14.04" width="2.50" customShape="1" shape="-2.64,35.22 2.18,36.69 7.12,38.19"/>
    </edge>
    <edge id="95" from="17" to="18" priority="1" spreadType="center" length="14.05">
        <lane id="95_0" index="0" disallow="rail_fast" speed="36.11" length="14.05" width="2.50" customShape="1" shape="6.44,40.59 1.46,39.08 -3.92,37.45"/>
    </edge>
    <edge id="96" from="19" to="20" priority="1" spreadType="center" length="11.76">
        <lane id="96_0" index="0" disallow="rail_fast" speed="36.11" length="11.76" width="2.50" customShape="1" shape="-12.75,52.91 -12.56,47.03 -12.42,42.99"/>
    </edge>
    <edge id="97" from="21" to="22" priority="1" spreadType="center" length="13.37">
        <lane id="97_0" index="0" disallow="rail_fast" speed="36.11" length="13.37" width="2.50" customShape="1" shape="16.59,32.51 17.66,27.69 18.73,22.83"/>
    </edge>
    <edge id="98" from="23" to="24" priority="1" spreadType="center" length="13.35">
        <lane id="98_0" index="0" disallow="rail_fast" speed="36.11" length="13.35" width="2.50" customShape="1" shape="21.54,21.70 20.10,28.22 18.99,33.24"/>
    </edge>
    <edge id="99" from="25" to="26" priority="1" spreadType="center" length="41.38">
        <lane id="99_0" index="0" disallow="rail_fast" speed="36.11" length="41.38" width="2.50" customShape="1" shape="-5.96,-38.76 -1.59,-57.42 3.12,-77.57"/>
    </edge>

    <junction id="1" type="priority" x="-12.16" y="28.15" incLanes="112_0 110_0" intLanes=":1_0_0 :1_1_0" shape="-9.92,35.99 -6.66,35.14 -8.99,33.17 -9.81,31.86 -10.41,30.32 -10.79,28.57 -10.94,26.59 -13.44,26.64 -13.52,36.48 -11.02,36.45 -10.89,35.80 -10.73,35.66 -10.52,35.65 -10.25,35.75">
        <request index="0" response="10" foes="10" cont="0"/>
        <request index="1" response="00" foes="01" cont="0"/>
    </junction>
    <junction id="10" type="priority" x="22.16" y="45.36" incLanes="91_0" intLanes=":10_0_0 :10_1_0" shape="23.42,47.05 24.15,44.65 22.04,43.88 20.31,42.94 18.95,41.85 17.97,40.59 17.35,39.17 17.11,37.58 15.09,40.59 15.24,41.37 15.14,41.59 14.93,41.71 14.60,41.72 14.16,41.63 13.44,44.02">
        <request index="0" response="00" foes="00" cont="0"/>
        <request index="1" response="00" foes="00" cont="0"/>
    </junction>
    <junction id="11" type="dead_end" x="67.94" y="30.36" incLanes="" intLanes="" shape="68.31,29.17 67.57,31.56"/>
    <junction id="12" type="priority" x="28.88" y="17.65" incLanes="92_0" intLanes=":12_0_0" shape="30.05,19.40 30.89,17.04 29.28,16.43 28.85,16.30 28.33,16.16 27.61,16.02 26.87,18.42 28.07,18.69 28.49,18.82 28.89,18.97 29.39,19.15">
        <request index="0" response="0" foes="0" cont="0"/>
    </junction>
    <junction id="13" type="priority" x="29.70" y="15.30" incLanes="106_0" intLanes=":13_0_0" shape="30.88,17.04 31.71,14.68 30.53,14.22 30.11,14.05 29.69,13.91 29.17,13.77 28.45,13.62 27.71,16.03 28.91,16.30 29.32,16.44 29.72,16.60 30.21,16.79">
        <request index="0" response="0" foes="0" cont="0"/>
    </junction>
    <junction id="14" type="dead_end" x="68.68" y="27.97" incLanes="93_0" intLanes="" shape="69.05,26.78 68.31,29.17"/>
    <junction id="15" type="priority" x="-4.55" y="34.65" incLanes="118_0" intLanes=":15_0_0" shape="-3.01,36.42 -2.28,34.03 -6.23,33.01 -6.76,35.47 -5.34,35.62 -4.85,35.76 -4.37,35.94 -3.79,36.16">
        <request index="0" response="0" foes="0" cont="0"/>
    </junction>
    <junction id="16" type="priority" x="8.89" y="38.72" incLanes="94_0" intLanes=":16_0_0 :16_1_0" shape="15.95,42.17 16.68,39.78 15.98,39.37 15.82,39.09 15.79,38.74 15.88,38.34 16.10,37.88 15.08,33.62 7.49,36.99 6.76,39.38">
        <request index="0" response="00" foes="00" cont="0"/>
        <request index="1" response="00" foes="00" cont="0"/>
    </junction>
    <junction id="17" type="priority" x="8.18" y="41.12" incLanes="111_0 113_0" intLanes=":17_0_0 :17_1_0" shape="16.39,44.91 17.11,42.52 16.49,42.17 16.38,41.93 16.40,41.65 16.56,41.33 16.85,40.97 16.56,37.11 14.65,39.44 13.19,40.02 11.39,40.21 9.26,40.00 6.80,39.39 6.07,41.79">
        <request index="0" response="00" foes="10" cont="0"/>
        <request index="1" response="01" foes="01" cont="0"/>
    </junction>
    <junction id="18" type="priority" x="-5.27" y="37.04" incLanes="95_0" intLanes=":18_0_0" shape="-4.28,38.64 -3.56,36.25 -6.15,35.38 -7.02,37.72">
        <request index="0" response="0" foes="0" cont="0"/>
    </junction>
    <junction id="19" type="dead_end" x="-12.75" y="52.91" incLanes="" intLanes="" shape="-11.50,52.95 -14.00,52.87"/>
    <junction id="2" type="priority" x="-12.28" y="-9.37" incLanes="87_0" intLanes=":2_0_0 :2_1_0" shape="-13.61,-7.57 -11.11,-7.46 -4.57,-14.80 -8.20,-17.68 -9.15,-17.60 -9.44,-17.74 -9.60,-18.01 -9.65,-18.39 -9.57,-18.90 -12.08,-19.16 -12.65,-16.73 -13.03,-14.93 -13.26,-13.42 -13.40,-11.91 -13.50,-10.06">
        <request index="0" response="00" foes="00" cont="0"/>
        <request index="1" response="00" foes="00" cont="0"/>
    </junction>
    <junction id="20" type="priority" x="-12.36" y="41.16" incLanes="96_0" intLanes=":20_0_0 :20_1_0" shape="-5.75,35.67 -9.41,33.26 -10.30,33.30 -10.59,33.19 -10.79,32.98 -10.91,32.69 -10.95,32.32 -13.44,32.27 -13.67,42.95 -11.17,43.03 -10.94,40.47 -10.45,38.45 -9.68,36.95 -8.64,35.99 -7.33,35.56">
        <request index="0" response="00" foes="00" cont="0"/>
        <request index="1" response="00" foes="00" cont="0"/>
    </junction>
    <junction id="21" type="priority" x="16.22" y="34.19" incLanes="117_0 115_0" intLanes=":21_0_0 :21_1_0" shape="15.24,40.98 18.19,41.29 16.88,38.40 16.81,37.24 17.00,36.03 17.37,34.60 17.81,32.78 15.37,32.24 14.83,34.18 14.15,35.71 13.33,36.83 12.38,37.54 11.29,37.84 10.06,37.72 13.29,40.12 14.16,40.02 14.51,40.12 14.80,40.31 15.05,40.60">
        <request index="0" response="10" foes="10" cont="0"/>
        <request index="1" response="00" foes="01" cont="0"/>
    </junction>
    <junction id="22" type="priority" x="19.10" y="21.13" incLanes="97_0" intLanes=":22_0_0" shape="20.81,19.79 18.39,19.12 17.95,20.36 17.84,20.81 17.76,21.26 17.66,21.82 17.51,22.56 19.95,23.10 20.19,21.85 20.28,21.41 20.38,20.98 20.55,20.47">
        <request index="0" response="0" foes="0" cont="0"/>
    </junction>
    <junction id="23" type="priority" x="21.54" y="21.70" incLanes="105_0" intLanes=":23_0_0" shape="22.75,22.00 20.34,21.34 20.31,21.46">
        <request index="0" response="0" foes="0" cont="0"/>
    </junction>
    <junction id="24" type="priority" x="18.66" y="34.73" incLanes="98_0" intLanes=":24_0_0 :24_1_0" shape="18.33,41.44 21.91,41.22 20.36,39.67 19.96,38.52 19.80,37.10 19.88,35.43 20.21,33.50 17.77,32.97 17.27,34.91 16.70,36.55 16.05,37.89 15.34,38.92 14.54,39.64 13.68,40.06 16.61,41.23 17.30,40.95 17.61,40.93 17.88,41.01 18.12,41.18">
        <request index="0" response="00" foes="00" cont="0"/>
        <request index="1" response="00" foes="00" cont="0"/>
    </junction>
    <junction id="25" type="priority" x="-6.30" y="-37.27" incLanes="104_0 109_0" intLanes=":25_0_0 :25_1_0" shape="-5.79,-29.19 -1.93,-29.73 -4.21,-31.50 -4.85,-32.81 -5.15,-34.41 -5.11,-36.30 -4.74,-38.47 -7.17,-39.04 -9.52,-29.48 -7.10,-28.88 -6.81,-29.47 -6.61,-29.58 -6.38,-29.57 -6.10,-29.44">
        <request index="0" response="10" foes="10" cont="0"/>
        <request index="1" response="00" foes="01" cont="0"/>
    </junction>
    <junction id="26" type="dead_end" x="3.12" y="-77.57" incLanes="99_0" intLanes="" shape="1.90,-77.85 4.34,-77.29"/>
    <junction id="27" type="dead_end" x="111.25" y="4.73" incLanes="" intLanes="" shape="111.55,3.51 110.96,5.94"/>
    <junction id="28" type="priority" x="-1.80" y="-28.34" incLanes="100_0" intLanes=":28_0_0" shape="-0.69,-26.70 0.03,-29.09 -1.02,-29.41 -1.38,-29.53 -1.74,-29.66 -2.17,-29.83 -2.75,-30.07 -3.68,-27.75 -2.59,-27.31 -2.21,-27.17 -1.82,-27.04 -1.34,-26.89">
        <request index="0" response="0" foes="0" cont="0"/>
    </junction>
    <junction id="29" type="priority" x="-1.08" y="-30.73" incLanes="103_0" intLanes=":29_0_0" shape="0.17,-29.05 0.89,-31.44 -0.35,-31.80 -0.79,-31.92 -1.23,-32.02 -1.76,-32.13 -2.49,-32.27 -2.97,-29.82 -1.80,-29.75 -1.39,-29.63 -0.49,-29.27">
        <request index="0" response="0" foes="0" cont="0"/>
    </junction>
    <junction id="3" type="dead_end" x="107.57" y="20.10" incLanes="" intLanes="" shape="107.93,18.90 107.21,21.29"/>
    <junction id="30" type="dead_end" x="111.84" y="2.30" incLanes="101_0" intLanes="" shape="112.14,1.08 111.55,3.51"/>
    <junction id="31" type="priority" x="-9.89" y="-22.91" incLanes="114_0 116_0" intLanes=":31_0_0 :31_1_0" shape="-9.22,-14.38 -5.19,-14.98 -7.74,-16.86 -8.45,-18.23 -8.78,-19.89 -8.73,-21.84 -8.29,-24.08 -10.71,-24.71 -12.93,-14.59 -10.50,-14.00 -10.25,-14.62 -10.06,-14.74 -9.82,-14.74 -9.55,-14.62">
        <request index="0" response="10" foes="10" cont="0"/>
        <request index="1" response="00" foes="01" cont="0"/>
    </junction>
    <junction id="32" type="priority" x="-9.38" y="-24.85" incLanes="102_0" intLanes=":32_0_0 :32_1_0" shape="-1.94,-29.62 -5.06,-32.10 -5.76,-32.04 -5.98,-32.15 -6.10,-32.34 -6.13,-32.63 -6.08,-33.00 -8.50,-33.60 -10.98,-23.68 -8.56,-23.05 -7.84,-25.31 -6.96,-27.11 -5.93,-28.43 -4.75,-29.29 -3.42,-29.69">
        <request index="0" response="00" foes="00" cont="0"/>