<!-- generated on 2020-12-18 16:29:39.335379 by ipykernel_launcher.py v1_2_0+5214-53edc58fcd
-->
<edges>
	<edge from="1" function="normal" id="87" length="37.53134314173919" numLanes="1" priority="1" speed="36.11111111111111" spreadType="center" to="2">
		<lane allow="moped bicycle pedestrian custom1 trailer evehicle rail_urban ship private vip custom2 authority delivery rail_electric taxi tram army hov coach motorcycle passenger rail emergency" index="0" length="37.53134314173919" shape="-12.15985,28.1542 -12.58735,4.32025 -12.431149999999999,-5.82175 -12.2768,-9.36875" speed="36.11111111111111" width="2.4986016989508353"/>
	</edge>
	<edge from="3" function="normal" id="88" length="117.87737480708915" numLanes="1" priority="1" speed="36.11111111111111" spreadType="center" to="4">
		<lane allow="moped bicycle pedestrian custom1 trailer evehicle rail_urban ship private truck vip custom2 authority delivery rail_electric taxi tram army hov coach motorcycle passenger bus rail emergency" index="0" length="117.87737480708915" shape="107.5697,20.09565 51.10465,3.1978 -5.3589,-13.7009" speed="36.11111111111111" width="2.499936777200576"/>
	</edge>
	<edge from="5" function="normal" id="89" length="117.87969924393218" numLanes="1" priority="1" speed="36.11111111111111" spreadType="center" to="6">
		<lane allow="moped bicycle pedestrian custom1 trailer evehicle rail_urban ship private truck vip custom2 authority delivery rail_electric taxi tram army hov coach motorcycle passenger bus rail emergency" index="0" length="117.87969924393218" shape="-4.6451,-16.09425 51.8214,0.8027500000000001 108.28645,17.70055" speed="36.11111111111111" width="2.4996214693429084"/>
	</edge>
	<edge from="7" function="normal" id="90" length="12.098682431351646" numLanes="1" priority="1" speed="36.11111111111111" spreadType="center" to="8">
		<lane allow="moped bicycle pedestrian custom1 trailer evehicle rail_urban ship private truck vip custom2 authority delivery rail_electric taxi tram army hov coach motorcycle passenger bus rail emergency" index="0" length="12.098682431351646" shape="22.9073,42.9734 28.6848,44.724999999999994 34.4854,46.4842" speed="36.11111111111111" width="2.4999914959855376"/>
	</edge>
	<edge from="9" function="normal" id="91" length="12.121600382302443" numLanes="1" priority="1" speed="36.11111111111111" spreadType="center" to="10">
		<lane allow="moped bicycle pedestrian custom1 trailer evehicle rail_urban ship private truck vip custom2 authority delivery rail_electric taxi tram army hov coach motorcycle passenger bus rail emergency" index="0" length="12.121600382302443" shape="33.75985,48.876599999999996 27.959249999999997,47.1174 22.16,45.35855" speed="36.11111111111111" width="2.4992043553899297"/>
	</edge>
	<edge from="11" function="normal" id="92" length="41.08592527374044" numLanes="1" priority="1" speed="36.11111111111111" spreadType="center" to="12">
		<lane allow="moped bicycle pedestrian custom1 trailer evehicle rail_urban ship private vip custom2 authority delivery rail_electric taxi tram army hov coach motorcycle passenger rail emergency" index="0" length="41.08592527374044" shape="67.94055,30.36055 54.3672,26.18195 39.87005,21.560200000000002 28.87525,17.65455" speed="36.11111111111111" width="2.499597091532954"/>
	</edge>
	<edge from="13" function="normal" id="93" length="40.99448041285535" numLanes="1" priority="1" speed="36.11111111111111" spreadType="center" to="14">
		<lane allow="moped bicycle pedestrian custom1 trailer evehicle rail_urban ship private vip custom2 authority delivery rail_electric taxi tram army hov coach motorcycle passenger rail emergency" index="0" length="40.99448041285535" shape="29.70325,15.296199999999999 40.6851,19.1969 55.135149999999996,23.802599999999998 68.6819,27.973" speed="36.11111111111111" width="2.4999717758406783"/>
	</edge>
	<edge from="15" function="normal" id="94" length="14.036532283764709" numLanes="1" priority="1" speed="36.11111111111111" spreadType="center" to="16">
		<lane allow="moped bicycle pedestrian custom1 trailer evehicle rail_urban ship private truck vip custom2 authority delivery rail_electric taxi tram army hov coach motorcycle passenger bus rail emergency" index="0" length="14.036532283764709" shape="-4.546250000000001,34.6479 2.1834499999999997,36.6879 8.88625,38.72125" speed="36.11111111111111" width="2.499305361495476"/>
	</edge>
	<edge from="17" function="normal" id="95" length="14.053302152220379" numLanes="1" priority="1" speed="36.11111111111111" spreadType="center" to="18">
		<lane allow="moped bicycle pedestrian custom1 trailer evehicle rail_urban ship private truck vip custom2 authority delivery rail_electric taxi tram army hov coach motorcycle passenger bus rail emergency" index="0" length="14.053302152220379" shape="8.183,41.119749999999996 1.4579499999999999,39.080299999999994 -5.26525,37.04055" speed="36.11111111111111" width="2.499163590083688"/>
	</edge>
	<edge from="19" function="normal" id="96" length="11.75513317725483" numLanes="1" priority="1" speed="36.11111111111111" spreadType="center" to="20">
		<lane allow="moped bicycle pedestrian custom1 trailer evehicle rail_urban ship private truck vip custom2 authority delivery rail_electric taxi tram army hov coach motorcycle passenger bus rail emergency" index="0" length="11.75513317725483" shape="-12.749649999999999,52.906549999999996 -12.5552,47.0322 -12.360800000000001,41.157849999999996" speed="36.11111111111111" width="2.4988208599257375"/>
	</edge>
	<edge from="21" function="normal" id="97" length="13.37276869907192" numLanes="1" priority="1" speed="36.11111111111111" spreadType="center" to="22">
		<lane allow="moped bicycle pedestrian custom1 trailer evehicle rail_urban ship private truck vip custom2 authority delivery rail_electric taxi tram army hov coach motorcycle passenger bus rail emergency" index="0" length="13.37276869907192" shape="16.22265,34.1867 17.65665,27.68505 19.104300000000002,21.1281" speed="36.11111111111111" width="2.4995422720970315"/>
	</edge>
	<edge from="23" function="normal" id="98" length="13.345082747863778" numLanes="1" priority="1" speed="36.11111111111111" spreadType="center" to="24">
		<lane allow="moped bicycle pedestrian custom1 trailer evehicle rail_urban ship private truck vip custom2 authority delivery rail_electric taxi tram army hov coach motorcycle passenger bus rail emergency" index="0" length="13.345082747863778" shape="21.5381,21.697 20.09795,28.22375 18.66235,34.72855" speed="36.11111111111111" width="2.499232602220128"/>
	</edge>
	<edge from="25" function="normal" id="99" length="41.38274009128237" numLanes="1" priority="1" speed="36.11111111111111" spreadType="center" to="26">
		<lane allow="moped bicycle pedestrian custom1 trailer evehicle rail_urban ship private truck vip custom2 authority delivery rail_electric taxi tram army hov coach motorcycle passenger bus rail emergency" index="0" length="41.38274009128237" shape="-6.302350000000001,-37.273849999999996 -1.59195,-57.4219 3.11845,-77.57" speed="36.11111111111111" width="2.499358913801697"/>
	</edge>
	<edge from="27" function="normal" id="100" length="117.80050179837414" numLanes="1" priority="1" speed="36.11111111111111" spreadType="center" to="28">
		<lane allow="moped bicycle pedestrian custom1 trailer evehicle rail_urban ship private vip custom2 authority delivery rail_electric taxi tram army hov coach motorcycle passenger rail emergency" index="0" length="117.80050179837414" shape="111.25055,4.7275 100.48855,2.1115 86.906,-1.6567500000000002 -1.79855,-28.3351" speed="36.11111111111111" width="2.4999405772937897"/>
	</edge>
	<edge from="29" function="normal" id="101" length="117.66920551276425" numLanes="1" priority="1" speed="36.11111111111111" spreadType="center" to="30">
		<lane allow="moped bicycle pedestrian custom1 trailer evehicle rail_urban ship private vip custom2 authority delivery rail_electric taxi tram army hov coach motorcycle passenger rail emergency" index="0" length="117.66920551276425" shape="-1.0803,-30.72665 87.5643,-4.0688 101.1065,-0.31074999999999997 111.84295,2.2987" speed="36.11111111111111" width="2.4994765872078095"/>
	</edge>
	<edge from="31" function="normal" id="102" length="2.008699835396336" numLanes="1" priority="1" speed="36.11111111111111" spreadType="center" to="32">
		<lane allow="moped bicycle pedestrian custom1 trailer evehicle rail_urban ship private truck vip custom2 authority delivery rail_electric taxi tram army hov coach motorcycle passenger bus rail emergency" index="0" length="2.008699835396336" shape="-9.8911,-22.908949999999997 -9.637550000000001,-23.88075 -9.38405,-24.8526" speed="36.11111111111111" width="2.4990046438532274"/>
	</edge>
	<edge from="32" function="normal" id="103" length="11.719919863414939" numLanes="1" priority="1" speed="36.11111111111111" spreadType="center" to="29">
		<lane allow="moped bicycle pedestrian custom1 trailer evehicle rail_urban ship private vip custom2 authority delivery rail_electric taxi tram army hov coach motorcycle passenger rail emergency" index="0" length="11.719919863414939" shape="-9.38405,-24.8526 -8.81925,-26.617649999999998 -8.01375,-28.28505 -7.293749999999999,-29.288 -6.3938,-30.131700000000002 -5.3202,-30.7372 -4.12735,-31.048099999999998 -2.8941,-31.07945 -1.0803,-30.72665" speed="36.11111111111111" width="2.4990046438532274"/>
	</edge>
	<edge from="28" function="normal" id="104" length="11.296584740813326" numLanes="1" priority="1" speed="36.11111111111111" spreadType="center" to="25">
		<lane allow="moped bicycle pedestrian custom1 trailer evehicle rail_urban ship private vip custom2 authority delivery rail_electric taxi tram army hov coach motorcycle passenger rail emergency" index="0" length="11.296584740813326" shape="-1.79855,-28.3351 -3.4541000000000004,-29.003149999999998 -4.45605,-29.64385 -5.31705,-30.4631 -5.97775,-31.45095 -6.406750000000001,-32.55945 -6.64925,-34.32455 -6.5266,-36.10455 -6.302350000000001,-37.273849999999996" speed="36.11111111111111" width="2.499358913801697"/>
	</edge>
	<edge from="12" function="normal" id="105" length="9.924781025222075" numLanes="1" priority="1" speed="36.11111111111111" spreadType="center" to="23">
		<lane allow="moped bicycle pedestrian custom1 trailer evehicle rail_urban ship private vip custom2 authority delivery rail_electric taxi tram army hov coach motorcycle passenger rail emergency" index="0" length="9.924781025222075" shape="28.87525,17.65455 27.822,17.3269 26.73605,17.1237 25.632649999999998,17.1115 24.558,17.352 23.59655,17.8868 22.82145,18.6692 22.2443,19.6099 21.82985,20.63395 21.5381,21.697" speed="36.11111111111111" width="2.499232602220128"/>
	</edge>
	<edge from="22" function="normal" id="106" length="14.204555408573295" numLanes="1" priority="1" speed="36.11111111111111" spreadType="center" to="13">
		<lane allow="moped bicycle pedestrian custom1 trailer evehicle rail_urban ship private vip custom2 authority delivery rail_electric taxi tram army hov coach motorcycle passenger rail emergency" index="0" length="14.204555408573295" shape="19.104300000000002,21.1281 19.492,19.72415 20.0706,18.30825 20.91375,16.9514 22.0938,15.77365 23.5792,14.951149999999998 25.20805,14.578700000000001 26.808300000000003,14.59175 28.31915,14.86825 29.70325,15.296199999999999" speed="36.11111111111111" width="2.500169506253527"/>
	</edge>
	<edge from="16" function="normal" id="107" length="14.65164236803823" numLanes="1" priority="1" speed="36.11111111111111" spreadType="center" to="7">
		<lane allow="moped bicycle pedestrian custom1 trailer evehicle rail_urban ship private truck vip custom2 authority delivery rail_electric taxi tram army hov coach motorcycle passenger bus rail emergency" index="0" length="14.65164236803823" shape="8.88625,38.72125 15.89705,40.8468 22.9073,42.9734" speed="36.11111111111111" width="2.499985601958541"/>
	</edge>
	<edge from="2" function="normal" id="108" length="12.404671760140586" numLanes="1" priority="1" speed="36.11111111111111" spreadType="center" to="5">
		<lane allow="moped bicycle pedestrian custom1 trailer evehicle rail_urban ship private vip custom2 authority delivery rail_electric taxi tram army hov coach motorcycle passenger rail emergency" index="0" length="12.404671760140586" shape="-12.2768,-9.36875 -12.0724,-11.319600000000001 -11.59045,-13.219000000000001 -11.03415,-14.4009 -10.215900000000001,-15.416050000000002 -9.70235,-15.8199 -9.12825,-16.1314 -7.87005,-16.47055 -6.56435,-16.4822 -4.6451,-16.09425" speed="36.11111111111111" width="2.4990294936234756"/>
	</edge>
	<edge from="32" function="normal" id="109" length="12.797825067277833" numLanes="1" priority="1" speed="36.11111111111111" spreadType="center" to="25">
		<lane allow="moped bicycle pedestrian custom1 trailer evehicle rail_urban ship private truck vip custom2 authority delivery rail_electric taxi tram army hov coach motorcycle passenger bus rail emergency" index="0" length="12.797825067277833" shape="-9.38405,-24.8526 -7.8431999999999995,-31.063200000000002 -6.302350000000001,-37.273849999999996" speed="36.11111111111111" width="2.4990046438532274"/>
	</edge>
	<edge from="20" function="normal" id="110" length="13.005714956614895" numLanes="1" priority="1" speed="36.11111111111111" spreadType="center" to="1">
		<lane allow="moped bicycle pedestrian custom1 trailer evehicle rail_urban ship private vip custom2 authority delivery rail_electric taxi tram army hov coach motorcycle passenger rail emergency" index="0" length="13.005714956614895" shape="-12.360800000000001,41.157849999999996 -12.14645,29.7149 -12.15985,28.1542" speed="36.11111111111111" width="2.4986016989508353"/>
	</edge>
	<edge from="10" function="normal" id="111" length="14.605613799123876" numLanes="1" priority="1" speed="36.11111111111111" spreadType="center" to="17">
		<lane allow="moped bicycle pedestrian custom1 trailer evehicle rail_urban ship private truck vip custom2 authority delivery rail_electric taxi tram army hov coach motorcycle passenger bus rail emergency" index="0" length="14.605613799123876" shape="22.16,45.35855 15.1715,43.2392 8.183,41.119749999999996" speed="36.11111111111111" width="2.499163590083688"/>
	</edge>
	<edge from="18" function="normal" id="112" length="12.161253049164293" numLanes="1" priority="1" speed="36.11111111111111" spreadType="center" to="1">
		<lane allow="moped bicycle pedestrian custom1 trailer evehicle rail_urban ship private vip custom2 authority delivery rail_electric taxi tram army hov coach motorcycle passenger rail emergency" index="0" length="12.161253049164293" shape="-5.26525,37.04055 -6.897349999999999,36.4336 -8.420300000000001,35.59765 -9.76365,34.4975 -10.84035,33.1361 -11.58935,31.570149999999998 -12.01365,29.88595 -12.15985,28.1542" speed="36.11111111111111" width="2.4986016989508353"/>
	</edge>
	<edge from="24" function="normal" id="113" length="14.327839351607025" numLanes="1" priority="1" speed="36.11111111111111" spreadType="center" to="17">
		<lane allow="moped bicycle pedestrian custom1 trailer evehicle rail_urban ship private vip custom2 authority delivery rail_electric taxi tram army hov coach motorcycle passenger rail emergency" index="0" length="14.327839351607025" shape="18.66235,34.72855 18.24015,36.28335 17.65,37.76095 16.83945,39.12845 15.7639,40.297 14.42025,41.1419 12.89695,41.5894 11.3106,41.6816 9.7305,41.49875 8.183,41.119749999999996" speed="36.11111111111111" width="2.499163590083688"/>
	</edge>
	<edge from="4" function="normal" id="114" length="11.656718686242858" numLanes="1" priority="1" speed="36.11111111111111" spreadType="center" to="31">
		<lane allow="moped bicycle pedestrian custom1 trailer evehicle rail_urban ship private vip custom2 authority delivery rail_electric taxi tram army hov coach motorcycle passenger rail emergency" index="0" length="11.656718686242858" shape="-5.3589,-13.7009 -6.9873,-14.34095 -7.98315,-14.9473 -8.8544,-15.720950000000002 -9.542750000000002,-16.660449999999997 -10.01295,-17.726149999999997 -10.2614,-18.8649 -10.294,-20.612450000000003 -10.0273,-22.341450000000002 -9.8911,-22.908949999999997" speed="36.11111111111111" width="2.499895647822125"/>
	</edge>
	<edge from="16" function="normal" id="115" length="10.16825191515651" numLanes="1" priority="1" speed="36.11111111111111" spreadType="center" to="21">
		<lane allow="moped bicycle pedestrian custom1 trailer evehicle rail_urban ship private vip custom2 authority delivery rail_electric taxi tram army hov coach motorcycle passenger rail emergency" index="0" length="10.16825191515651" shape="8.88625,38.72125 10.079999999999998,39.0163 11.236699999999999,39.1532 12.3342,39.09385 13.3317,38.803349999999995 14.189350000000001,38.25535 14.89675,37.468 15.46325,36.493 15.8986,35.3878 16.22265,34.1867" speed="36.11111111111111" width="2.4995422720970315"/>
	</edge>
	<edge from="2" function="normal" id="116" length="13.768372946516894" numLanes="1" priority="1" speed="36.11111111111111" spreadType="center" to="31">
		<lane allow="moped bicycle pedestrian custom1 trailer evehicle rail_urban ship private vip custom2 authority delivery rail_electric taxi tram army hov coach motorcycle passenger rail emergency" index="0" length="13.768372946516894" shape="-12.2768,-9.36875 -11.847349999999999,-13.582699999999999 -10.8841,-18.78985 -9.8911,-22.908949999999997" speed="36.11111111111111" width="2.4990294936234756"/>
	</edge>
	<edge from="10" function="normal" id="117" length="14.249379957306962" numLanes="1" priority="1" speed="36.11111111111111" spreadType="center" to="21">
		<lane allow="moped bicycle pedestrian custom1 trailer evehicle rail_urban ship private vip custom2 authority delivery rail_electric taxi tram army hov coach motorcycle passenger rail emergency" index="0" length="14.249379957306962" shape="22.16,45.35855 20.820050000000002,44.8728 19.5497,44.231300000000005 18.392,43.4053 17.4048,42.38305 16.64695,41.181200000000004 16.14655,39.85095 15.89265,38.4516 15.846900000000002,37.02925 15.9678,35.61075 16.22265,34.1867" speed="36.11111111111111" width="2.4992043553899297"/>
	</edge>
	<edge from="20" function="normal" id="118" length="12.518159914624597" numLanes="1" priority="1" speed="36.11111111111111" spreadType="center" to="15">
		<lane allow="moped bicycle pedestrian custom1 trailer evehicle rail_urban ship private vip custom2 authority delivery rail_electric taxi tram army hov coach motorcycle passenger rail emergency" index="0" length="12.518159914624597" shape="-12.360800000000001,41.157849999999996 -12.1813,39.1864 -11.6944,37.27015 -11.104099999999999,36.09195 -10.22825,35.11045 -9.6825,34.7405 -9.083649999999999,34.46465 -7.79495,34.19795 -6.47695,34.231700000000004 -4.546250000000001,34.6479" speed="36.11111111111111" width="2.4988208599257375"/>
	</edge>
	<edge from="24" function="normal" id="119" length="10.495927612197333" numLanes="1" priority="1" speed="36.11111111111111" spreadType="center" to="7">
		<lane allow="moped bicycle pedestrian custom1 trailer evehicle rail_urban ship private vip custom2 authority delivery rail_electric taxi tram army hov coach motorcycle passenger rail emergency" index="0" length="10.495927612197333" shape="18.66235,34.72855 18.45915,35.8583 18.36085,36.9589 18.388550000000002,38.02955 18.56295,39.046099999999996 18.900199999999998,39.978300000000004 19.41305,40.80965 20.089100000000002,41.522149999999996 20.915950000000002,42.1167 21.8602,42.5955 22.9073,42.9734" speed="36.11111111111111" width="2.499467115206762"/>
	</edge>
</edges>
