<routes>
	<vehicle depart="0.1" departLane="1" departPos="0" departSpeed="10.893291" id="1" type="passenger">
		<route edges="26 26 27 24"/>
	</vehicle>
	<vehicle depart="0.1" departLane="0" departPos="0" departSpeed="10.921256" id="2" type="passenger">
		<route edges="26 27 24"/>
	</vehicle>
	<vehicle depart="0.1" departLane="0" departPos="82.86689981778201" departSpeed="16.097112" id="3" type="passenger">
		<route edges="26 27 24"/>
	</vehicle>
</routes>
