<!-- generated on Tue Feb  9 22:09:09 2021 by Eclipse SUMO netconvert Version 1.8.0
<configuration xmlns:xsi="http://www.w3.org/2001/XMLSchema-instance" xsi:noNamespaceSchemaLocation="http://sumo.dlr.de/xsd/netconvertConfiguration.xsd">

    <input>
        <node-files value="./converted_scenarios/scenario-factory/DEU_Hennigsdorf-12_1_I-1-1/DEU_Hennigsdorf-12_1_I-1-1.nod.xml"/>
        <edge-files value="./converted_scenarios/scenario-factory/DEU_Hennigsdorf-12_1_I-1-1/DEU_Hennigsdorf-12_1_I-1-1.edg.xml"/>
        <connection-files value="./converted_scenarios/scenario-factory/DEU_Hennigsdorf-12_1_I-1-1/DEU_Hennigsdorf-12_1_I-1-1.con.xml"/>
        <tllogic-files value="./converted_scenarios/scenario-factory/DEU_Hennigsdorf-12_1_I-1-1/DEU_Hennigsdorf-12_1_I-1-1.tll.xml"/>
        <type-files value="/home/zen/commonroad-interactive-benchmarks/install/commonroad-map-tool/crmapconverter/sumo_map/templates/DEU.typ.xml"/>
    </input>

    <output>
        <output-file value="./converted_scenarios/scenario-factory/DEU_Hennigsdorf-12_1_I-1-1/DEU_Hennigsdorf-12_1_I-1-1.net.xml"/>
    </output>

    <processing>
        <geometry.remove.keep-edges.explicit value="true"/>
        <geometry.avoid-overlap value="true"/>
        <offset.disable-normalization value="true"/>
    </processing>

    <junctions>
        <no-turnarounds value="true"/>
        <junctions.internal-link-detail value="20"/>
    </junctions>

    <report>
        <aggregate-warnings value="5"/>
    </report>

    <random_number>
        <seed value="1234"/>
    </random_number>

</configuration>
--><net xmlns:xsi="http://www.w3.org/2001/XMLSchema-instance" version="1.6" junctionCornerDetail="5" junctionLinkDetail="20" limitTurnSpeed="5.50" xsi:noNamespaceSchemaLocation="http://sumo.dlr.de/xsd/net_file.xsd">

    <location netOffset="0.00,0.00" convBoundary="-230.69,828.24,-71.97,1011.36" origBoundary="-230.69,828.24,-70.65,1011.36" projParameter="!"/>

    <type id="highway.bridleway" priority="1" speed="2.78" allow="pedestrian" oneway="1" width="2.00"/>
    <type id="highway.bus_guideway" priority="1" speed="27.78" allow="bus" oneway="1"/>
    <type id="highway.cycleway" priority="1" speed="8.33" allow="bicycle" oneway="0" width="1.00"/>
    <type id="highway.footway" priority="1" speed="2.78" allow="pedestrian" oneway="1" width="2.00"/>
    <type id="highway.ford" priority="1" speed="2.78" allow="army" oneway="0"/>
    <type id="highway.living_street" priority="2" speed="2.78" disallow="tram rail_urban rail rail_electric rail_fast ship" oneway="0"/>
    <type id="highway.motorway" priority="14" speed="39.44" allow="private emergency authority army vip passenger hov taxi bus coach delivery truck trailer motorcycle evehicle custom1 custom2" oneway="1"/>
    <type id="highway.motorway_link" priority="9" speed="22.22" allow="private emergency authority army vip passenger hov taxi bus coach delivery truck trailer motorcycle evehicle custom1 custom2" oneway="1"/>
    <type id="highway.path" priority="1" speed="2.78" allow="pedestrian bicycle" oneway="0" width="2.00"/>
    <type id="highway.pedestrian" priority="1" speed="2.78" allow="pedestrian" oneway="1" width="2.00"/>
    <type id="highway.primary" priority="12" speed="27.78" disallow="pedestrian tram rail_urban rail rail_electric rail_fast ship" oneway="0"/>
    <type id="highway.primary_link" priority="7" speed="22.22" disallow="pedestrian tram rail_urban rail rail_electric rail_fast ship" oneway="0"/>
    <type id="highway.raceway" priority="15" speed="83.33" allow="vip" oneway="0"/>
    <type id="highway.residential" priority="3" speed="13.89" disallow="pedestrian tram rail_urban rail rail_electric rail_fast ship" oneway="0"/>
    <type id="highway.secondary" priority="11" speed="27.78" disallow="pedestrian tram rail_urban rail rail_electric rail_fast ship" oneway="0"/>
    <type id="highway.secondary_link" priority="6" speed="22.22" disallow="pedestrian tram rail_urban rail rail_electric rail_fast ship" oneway="0"/>
    <type id="highway.service" priority="1" speed="5.56" allow="pedestrian delivery bicycle" oneway="0"/>
    <type id="highway.stairs" priority="1" speed="1.39" allow="pedestrian" oneway="1" width="2.00"/>
    <type id="highway.step" priority="1" speed="1.39" allow="pedestrian" oneway="1" width="2.00"/>
    <type id="highway.steps" priority="1" speed="1.39" allow="pedestrian" oneway="1" width="2.00"/>
    <type id="highway.tertiary" priority="10" speed="22.22" disallow="pedestrian tram rail_urban rail rail_electric rail_fast ship" oneway="0"/>
    <type id="highway.tertiary_link" priority="5" speed="22.22" disallow="pedestrian tram rail_urban rail rail_electric rail_fast ship" oneway="0"/>
    <type id="highway.track" priority="1" speed="5.56" allow="pedestrian motorcycle moped bicycle" oneway="0"/>
    <type id="highway.trunk" priority="13" speed="27.78" disallow="pedestrian bicycle tram rail_urban rail rail_electric rail_fast ship" oneway="0"/>
    <type id="highway.trunk_link" priority="8" speed="22.22" disallow="pedestrian bicycle tram rail_urban rail rail_electric rail_fast ship" oneway="0"/>
    <type id="highway.unclassified" priority="4" speed="13.89" disallow="pedestrian tram rail_urban rail rail_electric rail_fast ship" oneway="0"/>
    <type id="highway.unsurfaced" priority="1" speed="8.33" disallow="tram rail_urban rail rail_electric rail_fast ship" oneway="0"/>
    <type id="railway.highspeed" priority="21" speed="69.44" allow="rail_fast" oneway="1"/>
    <type id="railway.light_rail" priority="19" speed="27.78" allow="rail_urban" oneway="1"/>
    <type id="railway.preserved" priority="16" speed="27.78" allow="rail" oneway="1"/>
    <type id="railway.rail" priority="20" speed="44.44" allow="rail" oneway="1"/>
    <type id="railway.subway" priority="18" speed="27.78" allow="rail_urban" oneway="1"/>
    <type id="railway.tram" priority="17" speed="13.89" allow="tram" oneway="1"/>

    <edge id=":21_0" function="internal">
        <lane id=":21_0_0" index="0" disallow="pedestrian tram rail_urban rail rail_electric rail_fast ship" speed="10.83" length="30.99" width="3.50" shape="-96.45,915.78 -98.92,913.00 -101.24,910.94 -103.29,909.56 -104.96,908.73 -106.72,908.15 -108.56,907.86 -110.42,907.90 -112.24,908.26 -113.98,908.90 -116.15,910.10 -118.14,911.59 -120.39,913.72 -122.03,915.58"/>
    </edge>
    <edge id=":21_1" function="internal">
        <lane id=":21_1_0" index="0" disallow="pedestrian tram rail_urban rail rail_electric rail_fast ship" speed="36.11" length="46.30" width="3.50" shape="-94.59,878.32 -98.79,883.33 -103.33,889.36 -111.87,901.82 -117.38,909.63 -121.71,915.19 -122.03,915.58"/>
    </edge>
    <edge id=":21_2" function="internal">
        <lane id=":21_2_0" index="0" disallow="pedestrian tram rail_urban rail rail_electric rail_fast ship" speed="16.16" length="40.39" width="3.50" shape="-122.01,877.54 -119.83,882.38 -118.17,886.95 -117.05,891.12 -116.41,894.84 -116.16,898.07 -116.24,901.30 -116.69,904.51 -117.37,907.12 -118.33,909.64 -119.56,912.04 -121.04,914.30 -122.03,915.58"/>
    </edge>
    <edge id=":21_3" function="internal">
        <lane id=":21_3_0" index="0" disallow="pedestrian tram rail_urban rail rail_electric rail_fast ship" speed="14.90" length="34.26" width="3.49" shape="-127.42,911.11 -125.47,908.50 -123.82,905.68 -122.72,903.19 -121.90,900.60 -121.38,897.93 -121.15,895.22 -121.26,891.96 -121.74,888.73 -122.55,885.57 -123.84,881.98 -125.18,879.02"/>
    </edge>
    <edge id=":21_4" function="internal">
        <lane id=":21_4_0" index="0" disallow="pedestrian tram rail_urban rail rail_electric rail_fast ship" speed="36.11" length="46.33" width="3.50" shape="-127.42,911.11 -113.46,894.56 -98.20,877.12 -97.20,876.00"/>
    </edge>
    <edge id=":21_5" function="internal">
        <lane id=":21_5_0" index="0" disallow="pedestrian tram rail_urban rail rail_electric rail_fast ship" speed="12.37" length="40.89" width="3.50" shape="-124.73,913.35 -121.88,910.16 -119.23,907.63 -116.83,905.74 -114.25,904.13 -112.03,903.10 -109.70,902.38 -107.90,902.08 -106.07,902.02 -104.25,902.21 -102.46,902.63 -100.19,903.52 -98.07,904.72 -95.63,906.55 -93.41,908.64 -90.99,911.40"/>
    </edge>
    <edge id=":22_0" function="internal">
        <lane id=":22_0_0" index="0" disallow="pedestrian tram rail_urban rail rail_electric rail_fast ship" speed="36.11" length="7.86" width="3.50" shape="-168.58,957.53 -165.81,954.40 -163.38,951.63"/>
        <lane id=":22_0_1" index="1" disallow="pedestrian tram rail_urban rail rail_electric rail_fast ship" speed="36.11" length="7.96" width="3.50" shape="-167.83,958.33 -161.67,953.29"/>
    </edge>
    <edge id=":5_0" function="internal">
        <lane id=":5_0_0" index="0" disallow="pedestrian tram rail_urban rail rail_electric rail_fast ship" speed="36.11" length="2.97" width="3.50" shape="-150.23,947.64 -152.33,949.74"/>
    </edge>
    <edge id=":6_0" function="internal">
        <lane id=":6_0_0" index="0" disallow="pedestrian tram rail_urban rail rail_electric rail_fast ship" speed="36.11" length="2.97" width="3.50" shape="-172.41,966.84 -174.61,968.84"/>
    </edge>

    <edge id="1830" from="6" to="7" priority="3" type="highway.residential" spreadType="center" length="68.51">
        <lane id="1830_0" index="0" disallow="pedestrian tram rail_urban rail rail_electric rail_fast ship" speed="36.11" length="68.51" width="3.50" customShape="1" shape="-174.61,968.84 -177.20,971.25 -183.65,976.90 -191.89,983.55 -208.40,996.01 -228.29,1011.36"/>
    </edge>
    <edge id="1831" from="4" to="22" priority="3" type="highway.residential" spreadType="center" length="80.64">
        <lane id="1831_0" index="0" disallow="pedestrian tram rail_urban rail rail_electric rail_fast ship" speed="36.11" length="80.64" width="3.50" customShape="1" shape="-230.69,1008.79 -210.65,993.31 -194.16,980.88 -185.97,974.27 -179.57,968.67 -168.12,958.02"/>
    </edge>
    <edge id="1919" from="20" to="21" priority="3" type="highway.residential" spreadType="center" length="54.01" shape="-144.05,828.24 -107.77,894.92">
        <lane id="1919_0" index="0" disallow="pedestrian tram rail_urban rail rail_electric rail_fast ship" speed="36.11" length="54.01" width="3.50" customShape="1" shape="-144.05,828.24 -139.84,837.40 -129.50,861.47 -122.01,877.54"/>
    </edge>
    <edge id="1920" from="21" to="12" priority="3" type="highway.residential" spreadType="center" length="54.03" shape="-110.84,896.59 -147.22,829.70">
        <lane id="1920_0" index="0" disallow="pedestrian tram rail_urban rail rail_electric rail_fast ship" speed="36.11" length="54.03" width="3.49" customShape="1" shape="-125.18,879.02 -132.67,862.95 -143.03,838.84 -147.22,829.70"/>
    </edge>
    <edge id="1963" from="21" to="14" priority="3" type="highway.residential" spreadType="center" length="18.79" shape="-108.08,894.49 -79.30,926.11">
        <lane id="1963_0" index="0" disallow="pedestrian tram rail_urban rail rail_electric rail_fast ship" speed="36.11" length="18.79" width="3.50" customShape="1" shape="-90.99,911.40 -85.15,918.75 -79.30,926.11"/>
    </edge>
    <edge id="1965" from="19" to="21" priority="3" type="highway.residential" spreadType="center" length="18.77" shape="-83.43,929.36 -112.09,897.85">
        <lane id="1965_0" index="0" disallow="pedestrian tram rail_urban rail rail_electric rail_fast ship" speed="36.11" length="18.78" width="3.50" customShape="1" shape="-84.79,930.46 -90.63,923.11 -96.47,915.75"/>
        <lane id="1965_1" index="1" disallow="pedestrian tram rail_urban rail rail_electric rail_fast ship" speed="36.11" length="18.77" width="3.50" customShape="1" shape="-82.06,928.27 -87.89,920.93 -93.73,913.57"/>
    </edge>
    <edge id="2003" from="18" to="21" priority="3" type="highway.residential" spreadType="center" length="32.04" shape="-71.97,855.57 -106.76,898.10">
        <lane id="2003_0" index="0" disallow="pedestrian tram rail_urban rail rail_electric rail_fast ship" speed="36.11" length="32.06" width="3.50" customShape="1" shape="-70.65,856.72 -81.31,868.68 -91.98,880.65"/>
        <lane id="2003_1" index="1" disallow="pedestrian tram rail_urban rail rail_electric rail_fast ship" speed="36.11" length="32.04" width="3.50" customShape="1" shape="-73.28,854.40 -83.93,866.36 -94.59,878.32"/>
    </edge>
    <edge id="2005" from="21" to="13" priority="3" type="highway.residential" spreadType="center" length="32.06" shape="-110.71,894.66 -75.88,852.06">
        <lane id="2005_0" index="0" disallow="pedestrian tram rail_urban rail rail_electric rail_fast ship" speed="36.11" length="32.06" width="3.50" customShape="1" shape="-97.20,876.00 -86.54,864.03 -75.88,852.06"/>
    </edge>
    <edge id="2010" from="21" to="5" priority="3" type="highway.residential" spreadType="center" length="42.71" shape="-107.95,896.81 -151.26,948.70">
        <lane id="2010_0" index="0" disallow="pedestrian tram rail_urban rail rail_electric rail_fast ship" speed="36.11" length="42.71" width="3.50" customShape="1" shape="-122.03,915.58 -124.30,918.31 -135.78,931.88 -144.91,942.12 -150.23,947.64"/>
    </edge>
    <edge id="2012" from="22" to="21" priority="3" type="highway.residential" spreadType="center" length="54.18" shape="-166.07,954.52 -111.84,893.29">
        <lane id="2012_0" index="0" disallow="pedestrian tram rail_urban rail rail_electric rail_fast ship" speed="36.11" length="54.18" width="3.50" customShape="1" shape="-163.59,951.42 -150.01,937.31 -141.01,927.23 -129.67,913.82 -127.42,911.11"/>
        <lane id="2012_1" index="1" disallow="pedestrian tram rail_urban rail rail_electric rail_fast ship" speed="36.11" length="54.48" width="3.50" customShape="1" shape="-161.09,953.87 -147.46,939.71 -138.40,929.56 -126.98,916.06 -124.72,913.34"/>
    </edge>
    <edge id="3250" from="5" to="6" priority="3" type="highway.residential" spreadType="center" length="26.38">
        <lane id="3250_0" index="0" disallow="pedestrian tram rail_urban rail rail_electric rail_fast ship" speed="36.11" length="26.38" width="3.50" customShape="1" shape="-152.33,949.74 -156.73,953.76 -168.88,963.70 -172.41,966.84"/>
    </edge>

    <junction id="12" type="dead_end" x="-147.22" y="829.70" incLanes="1920_0" intLanes="" shape="-148.81,830.43 -145.63,828.98" rightOfWay="edgePriority"/>
    <junction id="13" type="dead_end" x="-75.88" y="852.06" incLanes="2005_0" intLanes="" shape="-77.19,850.90 -74.57,853.23" rightOfWay="edgePriority"/>
    <junction id="14" type="dead_end" x="-79.30" y="926.11" incLanes="1963_0" intLanes="" shape="-77.93,925.02 -80.67,927.20" rightOfWay="edgePriority"/>
    <junction id="18" type="dead_end" x="-71.97" y="855.57" incLanes="" intLanes="" shape="-74.58,853.24 -69.36,857.90" rightOfWay="edgePriority"/>
    <junction id="19" type="dead_end" x="-83.43" y="929.36" incLanes="" intLanes="" shape="-80.69,927.18 -86.17,931.53" rightOfWay="edgePriority"/>
    <junction id="20" type="dead_end" x="-144.05" y="828.24" incLanes="" intLanes="" shape="-145.64,828.97 -142.45,827.51" rightOfWay="edgePriority"/>
    <junction id="21" type="priority" x="-109.32" y="895.72" incLanes="1965_0 1965_1 2003_0 2003_1 1919_0 2012_0 2012_1" intLanes=":21_0_0 :21_1_0 :21_2_0 :21_3_0 :21_4_0 :21_5_0" shape="-97.84,916.84 -89.62,910.31 -93.11,905.16 -95.27,900.17 -96.11,895.34 -95.63,890.67 -93.81,886.16 -90.67,881.82 -98.51,874.83 -102.60,878.92 -106.66,881.86 -110.58,883.39 -114.25,883.24 -117.57,881.14 -120.42,876.80 -126.76,879.76 -124.51,885.54 -123.29,891.03 -123.11,896.22 -123.96,901.11 -125.85,905.70 -128.77,910.00 -120.69,916.70 -116.83,912.81 -112.99,910.49 -109.17,909.73 -105.37,910.53 -101.59,912.90">
        <request index="0" response="000010" foes="000110" cont="0"/>
        <request index="1" response="000000" foes="100101" cont="0"/>
        <request index="2" response="110011" foes="110011" cont="0"/>
        <request index="3" response="000000" foes="000000" cont="0"/>
        <request index="4" response="000000" foes="000100" cont="0"/>
        <request index="5" response="000010" foes="000110" cont="0"/>
    </junction>
    <junction id="22" type="priority" x="-166.07" y="954.52" incLanes="1831_0" intLanes=":22_0_0 :22_0_1" shape="-159.84,955.09 -164.84,950.20 -166.57,952.56 -167.02,953.53 -167.47,954.48 -168.16,955.52 -169.31,956.74 -166.93,959.31 -164.38,957.63 -163.32,957.26 -162.27,956.88 -161.15,956.24">
        <request index="0" response="00" foes="00" cont="0"/>
        <request index="1" response="00" foes="00" cont="0"/>
    </junction>
    <junction id="4" type="dead_end" x="-230.69" y="1008.79" incLanes="" intLanes="" shape="-229.62,1010.18 -231.76,1007.41" rightOfWay="edgePriority"/>
    <junction id="5" type="priority" x="-151.26" y="948.70" incLanes="2010_0" intLanes=":5_0_0" shape="-148.97,948.85 -151.49,946.42 -153.56,948.49 -151.10,950.98" rightOfWay="edgePriority">
        <request index="0" response="0" foes="0" cont="0"/>
    </junction>
    <junction id="6" type="priority" x="-173.52" y="967.83" incLanes="3250_0" intLanes=":6_0_0" shape="-171.25,968.14 -173.57,965.53 -175.80,967.56 -173.42,970.12" rightOfWay="edgePriority">
        <request index="0" response="0" foes="0" cont="0"/>
    </junction>
    <junction id="7" type="dead_end" x="-228.29" y="1011.36" incLanes="1830_0" intLanes="" shape="-227.22,1012.75 -229.36,1009.98" rightOfWay="edgePriority"/>

    <connection from="1831" to="2012" fromLane="0" toLane="0" contPos="-4.00" shape="-175.91,965.27 -171.58,960.91 -165.81,954.40 -159.39,947.09 -156.22,943.77" via=":22_0_0" dir="s" state="M"/>
    <connection from="1831" to="2012" fromLane="0" toLane="1" contPos="-4.00" shape="-175.91,965.27 -171.22,961.11 -159.10,951.19 -154.48,946.96 -153.74,946.24" via=":22_0_1" dir="s" state="M"/>
    <connection from="1919" to="2010" fromLane="0" toLane="0" contPos="-4.00" shape="-122.05,877.44 -119.83,882.38 -118.17,886.95 -117.05,891.12 -116.41,894.84 -116.16,898.07 -116.24,901.30 -116.69,904.51 -117.37,907.12 -118.33,909.64 -119.56,912.04 -121.04,914.30 -122.03,915.58" via=":21_2_0" dir="l" state="m"/>
    <connection from="1965" to="2010" fromLane="0" toLane="0" contPos="-4.00" shape="-96.45,915.78 -98.92,913.00 -101.24,910.94 -103.29,909.56 -104.96,908.73 -106.72,908.15 -108.56,907.86 -110.42,907.90 -112.24,908.26 -113.98,908.90 -116.15,910.10 -118.14,911.59 -120.39,913.72 -122.03,915.58" via=":21_0_0" dir="r" state="m"/>
    <connection from="2003" to="2010" fromLane="1" toLane="0" contPos="-4.00" shape="-94.59,878.32 -98.79,883.33 -103.33,889.36 -111.87,901.82 -117.38,909.63 -121.71,915.19 -122.03,915.58" via=":21_1_0" dir="s" state="M"/>
    <connection from="2010" to="3250" fromLane="0" toLane="0" contPos="-4.00" via=":5_0_0" dir="s" state="M"/>
    <connection from="2012" to="1920" fromLane="0" toLane="0" contPos="-4.00" shape="-127.42,911.11 -125.47,908.50 -123.82,905.68 -122.72,903.19 -121.90,900.60 -121.38,897.93 -121.15,895.22 -121.26,891.96 -121.74,888.73 -122.55,885.57 -123.84,881.98 -125.18,879.02" via=":21_3_0" dir="r" state="M"/>
    <connection from="2012" to="2005" fromLane="0" toLane="0" contPos="-4.00" shape="-127.42,911.11 -113.46,894.56 -98.20,877.12 -97.20,876.00" via=":21_4_0" dir="s" state="M"/>
    <connection from="2012" to="1963" fromLane="1" toLane="0" contPos="-4.00" shape="-124.72,913.34 -121.88,910.16 -119.23,907.63 -116.83,905.74 -114.25,904.13 -112.03,903.10 -109.70,902.38 -107.90,902.08 -106.07,902.02 -104.25,902.21 -102.46,902.63 -100.19,903.52 -98.07,904.72 -95.63,906.55 -93.41,908.64 -90.99,911.40" via=":21_5_0" dir="l" state="m"/>
    <connection from="3250" to="1830" fromLane="0" toLane="0" contPos="-4.00" via=":6_0_0" dir="s" state="M"/>

    <connection from=":21_0" to="2010" fromLane="0" toLane="0" dir="r" state="M"/>
    <connection from=":21_1" to="2010" fromLane="0" toLane="0" dir="s" state="M"/>
    <connection from=":21_2" to="2010" fromLane="0" toLane="0" dir="l" state="M"/>
    <connection from=":21_3" to="1920" fromLane="0" toLane="0" dir="r" state="M"/>
    <connection from=":21_4" to="2005" fromLane="0" toLane="0" dir="s" state="M"/>
    <connection from=":21_5" to="1963" fromLane="0" toLane="0" dir="l" state="M"/>
    <connection from=":22_0" to="2012" fromLane="0" toLane="0" dir="s" state="M"/>
    <connection from=":22_0" to="2012" fromLane="1" toLane="1" dir="s" state="M"/>
    <connection from=":5_0" to="3250" fromLane="0" toLane="0" dir="s" state="M"/>
    <connection from=":6_0" to="1830" fromLane="0" toLane="0" dir="s" state="M"/>

</net>