<routes>
	<vehicle depart="0.1" departLane="0" departPos="4.462421606616963" departSpeed="6.3835229" id="315" type="bicycle">
		<route edges=":21_3 1920"/>
	</vehicle>
	<vehicle depart="0.1" departLane="1" departPos="39.586889631160794" departSpeed="4.5483947" id="317" type="bicycle">
		<route edges="2012 1963"/>
	</vehicle>
	<vehicle depart="0.1" departLane="0" departPos="14.765632186827546" departSpeed="0.60712878" id="316" type="passenger">
		<route edges="2010 3250"/>
	</vehicle>
	<vehicle depart="0.1" departLane="0" departPos="7.0633989132800075" departSpeed="0.048140833" id="319" type="passenger">
		<route edges="2010 3250"/>
	</vehicle>
	<vehicle depart="0.1" departLane="0" departPos="18.680295302990057" departSpeed="0.0" id="322" type="passenger">
		<route edges="1965 2010"/>
	</vehicle>
	<vehicle depart="0.1" departLane="0" departPos="21.286347300237463" departSpeed="2.1537515" id="323" type="passenger">
		<route edges=":21_1 2010"/>
	</vehicle>
	<vehicle depart="0.1" departLane="0" departPos="6.985340974682298" departSpeed="11.697204" id="324" type="passenger">
		<route edges="2012 2005"/>
	</vehicle>
	<vehicle depart="0.1" departLane="1" departPos="28.970857936451996" departSpeed="0.50604886" id="329" type="passenger">
		<route edges="2003 2010"/>
	</vehicle>
	<vehicle depart="0.1" departLane="1" departPos="22.496775401925717" departSpeed="0.043294195" id="331" type="passenger">
		<route edges="2003 2010"/>
	</vehicle>
	<vehicle depart="0.1" departLane="0" departPos="6.745326199617535" departSpeed="0.079436898" id="327" type="truck">
		<route edges=":21_1 2010"/>
	</vehicle>
</routes>
