<routes>
	<vehicle depart="0.1" departLane="0" departPos="87.58294266197548" departSpeed="17.872684" id="35" type="passenger">
		<route edges="3599 3602"/>
	</vehicle>
	<vehicle depart="0.1" departLane="0" departPos="18.446618915318343" departSpeed="0.14602338" id="334" type="passenger">
		<route edges=":124_5 4006"/>
	</vehicle>
	<vehicle depart="0.1" departLane="0" departPos="2.5" departSpeed="0.17691067" id="342" type="passenger">
		<route edges=":124_5 4006"/>
	</vehicle>
	<vehicle depart="0.1" departLane="0" departPos="21.469142539609983" departSpeed="2.6478154" id="344" type="passenger">
		<route edges="4009 4006"/>
	</vehicle>
	<vehicle depart="0.1" departLane="0" departPos="10.35292426870274" departSpeed="15.576516" id="362" type="passenger">
		<route edges="4010 4057"/>
	</vehicle>
</routes>
