<routes>
	<vehicle depart="0.1" departLane="0" departPos="16.312914751444886" departSpeed="8.0075795" id="39" type="bicycle">
		<route edges="31253 31250"/>
	</vehicle>
	<vehicle depart="0.1" departLane="0" departPos="8.883008056618674" departSpeed="10.569896" id="331" type="passenger">
		<route edges=":42_0 31074"/>
	</vehicle>
	<vehicle depart="0.1" departLane="0" departPos="7.121001425359926" departSpeed="5.0055711" id="332" type="passenger">
		<route edges=":45_0 31017"/>
	</vehicle>
	<vehicle depart="0.1" departLane="0" departPos="25.940053066688527" departSpeed="7.1163375" id="336" type="passenger">
		<route edges="31254 31017"/>
	</vehicle>
	<vehicle depart="0.1" departLane="0" departPos="49.79518039503056" departSpeed="12.091136" id="347" type="passenger">
		<route edges="31251 31254"/>
	</vehicle>
	<vehicle depart="0.1" departLane="0" departPos="13.968323585794515" departSpeed="8.6936807" id="348" type="passenger">
		<route edges="31251 31254"/>
	</vehicle>
	<vehicle depart="0.1" departLane="0" departPos="17.847325957259653" departSpeed="2.2902812" id="30" type="truck">
		<route edges=":42_5 31254"/>
	</vehicle>
	<vehicle depart="0.1" departLane="0" departPos="29.917040349313194" departSpeed="10.887031" id="339" type="truck">
		<route edges=":42_2 31254 31017"/>
	</vehicle>
</routes>
