<routes>
	<vehicle depart="0.1" departLane="0" departPos="33.00948986416318" departSpeed="8.1904984" id="35" type="bicycle">
		<route edges=":21_8 44594 44176"/>
	</vehicle>
	<vehicle depart="0.1" departLane="0" departPos="10.122912740836341" departSpeed="0.28265193" id="34" type="passenger">
		<route edges=":21_2 44590"/>
	</vehicle>
	<vehicle depart="0.1" departLane="0" departPos="13.188546087239393" departSpeed="2.4408998e-05" id="37" type="passenger">
		<route edges="44593 44384"/>
	</vehicle>
	<vehicle depart="0.1" departLane="0" departPos="65.90787559959135" departSpeed="0.12395051" id="38" type="passenger">
		<route edges="44383 44590"/>
	</vehicle>
	<vehicle depart="0.1" departLane="0" departPos="53.03502163482949" departSpeed="1.3274115" id="39" type="passenger">
		<route edges="44383 44590"/>
	</vehicle>
	<vehicle depart="0.1" departLane="0" departPos="20.690400825061136" departSpeed="0.0" id="313" type="passenger">
		<route edges="44593 44384"/>
	</vehicle>
	<vehicle depart="0.1" departLane="0" departPos="32.38160923505821" departSpeed="3.068638" id="329" type="passenger">
		<route edges="44381 44590"/>
	</vehicle>
	<vehicle depart="0.1" departLane="0" departPos="13.623178244931804" departSpeed="4.4149108" id="332" type="passenger">
		<route edges="44381 44590"/>
	</vehicle>
	<vehicle depart="0.1" departLane="0" departPos="48.771556620632694" departSpeed="2.3827375" id="322" type="motorcycle">
		<route edges="44381 44384"/>
	</vehicle>
	<vehicle depart="0.1" departLane="0" departPos="16.91440024676664" departSpeed="3.922954" id="320" type="truck">
		<route edges=":21_6 44590"/>
	</vehicle>
</routes>
