<!-- generated on Tue Feb  9 22:13:23 2021 by Eclipse SUMO netconvert Version 1.8.0
<configuration xmlns:xsi="http://www.w3.org/2001/XMLSchema-instance" xsi:noNamespaceSchemaLocation="http://sumo.dlr.de/xsd/netconvertConfiguration.xsd">

    <input>
        <node-files value="./converted_scenarios/scenario-factory/DEU_Moelln-10_2_I-1-1/DEU_Moelln-10_2_I-1-1.nod.xml"/>
        <edge-files value="./converted_scenarios/scenario-factory/DEU_Moelln-10_2_I-1-1/DEU_Moelln-10_2_I-1-1.edg.xml"/>
        <connection-files value="./converted_scenarios/scenario-factory/DEU_Moelln-10_2_I-1-1/DEU_Moelln-10_2_I-1-1.con.xml"/>
        <tllogic-files value="./converted_scenarios/scenario-factory/DEU_Moelln-10_2_I-1-1/DEU_Moelln-10_2_I-1-1.tll.xml"/>
        <type-files value="/home/zen/commonroad-interactive-benchmarks/install/commonroad-map-tool/crmapconverter/sumo_map/templates/DEU.typ.xml"/>
    </input>

    <output>
        <output-file value="./converted_scenarios/scenario-factory/DEU_Moelln-10_2_I-1-1/DEU_Moelln-10_2_I-1-1.net.xml"/>
    </output>

    <processing>
        <geometry.remove.keep-edges.explicit value="true"/>
        <geometry.avoid-overlap value="true"/>
        <offset.disable-normalization value="true"/>
    </processing>

    <junctions>
        <no-turnarounds value="true"/>
        <junctions.internal-link-detail value="20"/>
    </junctions>

    <report>
        <aggregate-warnings value="5"/>
    </report>

    <random_number>
        <seed value="1234"/>
    </random_number>

</configuration>
--><net xmlns:xsi="http://www.w3.org/2001/XMLSchema-instance" version="1.6" junctionCornerDetail="5" junctionLinkDetail="20" limitTurnSpeed="5.50" xsi:noNamespaceSchemaLocation="http://sumo.dlr.de/xsd/net_file.xsd">

    <location netOffset="0.00,0.00" convBoundary="52.68,-347.14,138.01,-216.27" origBoundary="52.68,-347.14,138.01,-216.27" projParameter="!"/>

    <type id="highway.bridleway" priority="1" speed="2.78" allow="pedestrian" oneway="1" width="2.00"/>
    <type id="highway.bus_guideway" priority="1" speed="27.78" allow="bus" oneway="1"/>
    <type id="highway.cycleway" priority="1" speed="8.33" allow="bicycle" oneway="0" width="1.00"/>
    <type id="highway.footway" priority="1" speed="2.78" allow="pedestrian" oneway="1" width="2.00"/>
    <type id="highway.ford" priority="1" speed="2.78" allow="army" oneway="0"/>
    <type id="highway.living_street" priority="2" speed="2.78" disallow="tram rail_urban rail rail_electric rail_fast ship" oneway="0"/>
    <type id="highway.motorway" priority="14" speed="39.44" allow="private emergency authority army vip passenger hov taxi bus coach delivery truck trailer motorcycle evehicle custom1 custom2" oneway="1"/>
    <type id="highway.motorway_link" priority="9" speed="22.22" allow="private emergency authority army vip passenger hov taxi bus coach delivery truck trailer motorcycle evehicle custom1 custom2" oneway="1"/>
    <type id="highway.path" priority="1" speed="2.78" allow="pedestrian bicycle" oneway="0" width="2.00"/>
    <type id="highway.pedestrian" priority="1" speed="2.78" allow="pedestrian" oneway="1" width="2.00"/>
    <type id="highway.primary" priority="12" speed="27.78" disallow="pedestrian tram rail_urban rail rail_electric rail_fast ship" oneway="0"/>
    <type id="highway.primary_link" priority="7" speed="22.22" disallow="pedestrian tram rail_urban rail rail_electric rail_fast ship" oneway="0"/>
    <type id="highway.raceway" priority="15" speed="83.33" allow="vip" oneway="0"/>
    <type id="highway.residential" priority="3" speed="13.89" disallow="pedestrian tram rail_urban rail rail_electric rail_fast ship" oneway="0"/>
    <type id="highway.secondary" priority="11" speed="27.78" disallow="pedestrian tram rail_urban rail rail_electric rail_fast ship" oneway="0"/>
    <type id="highway.secondary_link" priority="6" speed="22.22" disallow="pedestrian tram rail_urban rail rail_electric rail_fast ship" oneway="0"/>
    <type id="highway.service" priority="1" speed="5.56" allow="pedestrian delivery bicycle" oneway="0"/>
    <type id="highway.stairs" priority="1" speed="1.39" allow="pedestrian" oneway="1" width="2.00"/>
    <type id="highway.step" priority="1" speed="1.39" allow="pedestrian" oneway="1" width="2.00"/>
    <type id="highway.steps" priority="1" speed="1.39" allow="pedestrian" oneway="1" width="2.00"/>
    <type id="highway.tertiary" priority="10" speed="22.22" disallow="pedestrian tram rail_urban rail rail_electric rail_fast ship" oneway="0"/>
    <type id="highway.tertiary_link" priority="5" speed="22.22" disallow="pedestrian tram rail_urban rail rail_electric rail_fast ship" oneway="0"/>
    <type id="highway.track" priority="1" speed="5.56" allow="pedestrian motorcycle moped bicycle" oneway="0"/>
    <type id="highway.trunk" priority="13" speed="27.78" disallow="pedestrian bicycle tram rail_urban rail rail_electric rail_fast ship" oneway="0"/>
    <type id="highway.trunk_link" priority="8" speed="22.22" disallow="pedestrian bicycle tram rail_urban rail rail_electric rail_fast ship" oneway="0"/>
    <type id="highway.unclassified" priority="4" speed="13.89" disallow="pedestrian tram rail_urban rail rail_electric rail_fast ship" oneway="0"/>
    <type id="highway.unsurfaced" priority="1" speed="8.33" disallow="tram rail_urban rail rail_electric rail_fast ship" oneway="0"/>
    <type id="railway.highspeed" priority="21" speed="69.44" allow="rail_fast" oneway="1"/>
    <type id="railway.light_rail" priority="19" speed="27.78" allow="rail_urban" oneway="1"/>
    <type id="railway.preserved" priority="16" speed="27.78" allow="rail" oneway="1"/>
    <type id="railway.rail" priority="20" speed="44.44" allow="rail" oneway="1"/>
    <type id="railway.subway" priority="18" speed="27.78" allow="rail_urban" oneway="1"/>
    <type id="railway.tram" priority="17" speed="13.89" allow="tram" oneway="1"/>

    <edge id=":1_0" function="internal">
        <lane id=":1_0_0" index="0" disallow="pedestrian tram rail_urban rail rail_electric rail_fast ship" speed="36.11" length="3.01" width="3.50" shape="93.28,-298.75 95.97,-300.09"/>
    </edge>
    <edge id=":19_0" function="internal">
        <lane id=":19_0_0" index="0" disallow="pedestrian tram rail_urban rail rail_electric rail_fast ship" speed="36.11" length="3.00" width="3.50" shape="83.48,-255.72 82.57,-258.58"/>
        <lane id=":19_0_1" index="1" disallow="pedestrian tram rail_urban rail rail_electric rail_fast ship" speed="36.11" length="3.00" width="3.50" shape="86.82,-256.78 85.91,-259.64"/>
    </edge>
    <edge id=":2_0" function="internal">
        <lane id=":2_0_0" index="0" disallow="pedestrian tram rail_urban rail rail_electric rail_fast ship" speed="36.11" length="2.96" width="3.50" shape="110.85,-307.47 113.52,-308.75"/>
    </edge>
    <edge id=":21_0" function="internal">
        <lane id=":21_0_0" index="0" disallow="pedestrian tram rail_urban rail rail_electric rail_fast ship" speed="36.11" length="3.02" width="3.50" shape="73.01,-311.99 73.96,-309.12"/>
        <lane id=":21_0_1" index="1" disallow="pedestrian tram rail_urban rail rail_electric rail_fast ship" speed="36.11" length="2.97" width="3.50" shape="69.70,-310.86 70.63,-308.04"/>
    </edge>
    <edge id=":23_0" function="internal">
        <lane id=":23_0_0" index="0" disallow="pedestrian tram rail_urban rail rail_electric rail_fast ship" speed="36.11" length="3.01" width="3.50" shape="99.08,-293.82 96.39,-292.48"/>
        <lane id=":23_0_1" index="1" disallow="pedestrian tram rail_urban rail rail_electric rail_fast ship" speed="36.11" length="3.00" width="3.50" shape="97.53,-296.95 94.84,-295.62"/>
    </edge>
    <edge id=":28_0" function="internal">
        <lane id=":28_0_0" index="0" disallow="pedestrian tram rail_urban rail rail_electric rail_fast ship" speed="36.11" length="29.45" width="3.50" shape="78.63,-270.92 74.20,-284.98 69.77,-299.01"/>
    </edge>
    <edge id=":28_1" function="internal">
        <lane id=":28_1_0" index="0" disallow="pedestrian tram rail_urban rail rail_electric rail_fast ship" speed="11.33" length="25.94" width="3.50" shape="81.97,-271.98 80.76,-276.34 80.06,-280.22 79.84,-283.03 79.95,-285.85 80.37,-288.06 80.91,-289.66 81.67,-291.17 82.66,-292.54 83.86,-293.73 85.24,-294.72 86.23,-295.26"/>
    </edge>
    <edge id=":28_2" function="internal">
        <lane id=":28_2_0" index="0" disallow="pedestrian tram rail_urban rail rail_electric rail_fast ship" speed="9.52" length="18.17" width="3.50" shape="89.36,-289.01 87.87,-288.12 86.57,-287.02 85.52,-285.69 84.75,-284.18 84.27,-282.54 84.06,-280.86 84.11,-278.59 84.56,-275.79 85.30,-273.05"/>
    </edge>
    <edge id=":28_3" function="internal">
        <lane id=":28_3_0" index="0" disallow="pedestrian tram rail_urban rail rail_electric rail_fast ship" speed="9.55" length="23.03" width="3.50" shape="87.79,-292.13 84.99,-290.92 82.67,-290.23 80.88,-289.93 79.06,-289.89 77.26,-290.17 75.57,-290.82 74.05,-291.83 72.77,-293.11 71.71,-294.59 70.60,-296.75 69.77,-299.01"/>
    </edge>
    <edge id=":28_4" function="internal">
        <lane id=":28_4_0" index="0" disallow="pedestrian tram rail_urban rail rail_electric rail_fast ship" speed="7.44" length="13.55" width="3.50" shape="76.44,-301.13 77.31,-298.81 78.20,-297.19 79.36,-295.76 80.34,-295.01 81.47,-294.53 82.68,-294.35 83.91,-294.45 85.66,-295.00 86.23,-295.26"/>
    </edge>
    <edge id=":28_5" function="internal">
        <lane id=":28_5_0" index="0" disallow="pedestrian tram rail_urban rail rail_electric rail_fast ship" speed="36.11" length="29.68" width="3.50" shape="73.10,-300.06 74.49,-296.21 76.59,-291.55 82.44,-280.17 84.28,-275.95 85.30,-273.05"/>
    </edge>
    <edge id=":29_0" function="internal">
        <lane id=":29_0_0" index="0" disallow="pedestrian tram rail_urban rail rail_electric rail_fast ship" speed="36.11" length="3.11" width="3.50" shape="69.10,-322.59 70.28,-319.71"/>
    </edge>
    <edge id=":29_1" function="internal">
        <lane id=":29_1_0" index="0" disallow="pedestrian tram rail_urban rail rail_electric rail_fast ship" speed="36.11" length="3.17" width="3.50" shape="65.88,-321.36 67.03,-318.41"/>
    </edge>
    <edge id=":31_0" function="internal">
        <lane id=":31_0_0" index="0" disallow="pedestrian tram rail_urban rail rail_electric rail_fast ship" speed="36.11" length="3.25" width="3.50" shape="115.29,-305.71 112.36,-304.31"/>
    </edge>
    <edge id=":31_1" function="internal">
        <lane id=":31_1_0" index="0" disallow="pedestrian tram rail_urban rail rail_electric rail_fast ship" speed="36.11" length="3.15" width="3.50" shape="116.72,-302.62 113.92,-301.18"/>
    </edge>
    <edge id=":33_0" function="internal">
        <lane id=":33_0_0" index="0" disallow="pedestrian tram rail_urban rail rail_electric rail_fast ship" speed="36.11" length="3.29" width="3.50" shape="91.19,-242.90 90.24,-246.05"/>
    </edge>
    <edge id=":33_1" function="internal">
        <lane id=":33_1_0" index="0" disallow="pedestrian tram rail_urban rail rail_electric rail_fast ship" speed="36.11" length="3.17" width="3.50" shape="87.92,-241.97 86.91,-244.97"/>
    </edge>
    <edge id=":4_0" function="internal">
        <lane id=":4_0_0" index="0" disallow="pedestrian tram rail_urban rail rail_electric rail_fast ship" speed="36.11" length="2.94" width="3.50" shape="67.29,-306.97 66.37,-309.76"/>
    </edge>
    <edge id=":5_0" function="internal">
        <lane id=":5_0_0" index="0" disallow="pedestrian tram rail_urban rail rail_electric rail_fast ship" speed="36.11" length="2.99" width="3.50" shape="63.77,-317.13 62.69,-319.92"/>
    </edge>
    <edge id=":7_0" function="internal">
        <lane id=":7_0_0" index="0" disallow="pedestrian tram rail_urban rail rail_electric rail_fast ship" speed="36.11" length="3.00" width="3.50" shape="89.24,-260.71 90.15,-257.85"/>
    </edge>
    <edge id=":8_0" function="internal">
        <lane id=":8_0_0" index="0" disallow="pedestrian tram rail_urban rail rail_electric rail_fast ship" speed="36.11" length="0.25" width="3.50" shape="94.01,-245.76 94.08,-245.52"/>
    </edge>

    <edge id="52098" from="21" to="28" priority="3" type="highway.residential" spreadType="center" length="8.36" shape="71.84,-310.02 84.05,-289.66">
        <lane id="52098_0" index="0" disallow="pedestrian tram rail_urban rail rail_electric rail_fast ship" speed="36.11" length="8.39" width="3.50" customShape="1" shape="73.96,-309.12 74.30,-308.01 75.09,-305.46 75.13,-305.34 75.17,-305.22 75.77,-303.28 76.37,-301.35 76.41,-301.23 76.44,-301.11"/>
        <lane id="52098_1" index="1" disallow="pedestrian tram rail_urban rail rail_electric rail_fast ship" speed="36.11" length="8.36" width="3.50" customShape="1" shape="70.63,-308.04 70.97,-306.94 71.75,-304.43 71.79,-304.30 71.82,-304.18 72.43,-302.24 73.03,-300.31 73.07,-300.19 73.11,-300.06"/>
    </edge>
    <edge id="52106" from="29" to="21" priority="3" type="highway.residential" spreadType="center" length="8.01">
        <lane id="52106_0" index="0" disallow="pedestrian tram rail_urban rail rail_electric rail_fast ship" speed="36.11" length="8.19" width="3.50" customShape="1" shape="70.28,-319.71 70.68,-318.67 73.01,-311.99"/>
        <lane id="52106_1" index="1" disallow="pedestrian tram rail_urban rail rail_electric rail_fast ship" speed="36.11" length="8.01" width="3.50" customShape="1" shape="67.03,-318.41 67.40,-317.46 69.70,-310.86"/>
    </edge>
    <edge id="52108" from="4" to="5" priority="3" type="highway.residential" spreadType="center" length="7.82">
        <lane id="52108_0" index="0" disallow="pedestrian tram rail_urban rail rail_electric rail_fast ship" speed="36.11" length="7.82" width="3.50" customShape="1" shape="66.37,-309.76 64.15,-316.16 63.77,-317.13"/>
    </edge>
    <edge id="52152" from="7" to="8" priority="3" type="highway.residential" spreadType="center" length="12.69">
        <lane id="52152_0" index="0" disallow="pedestrian tram rail_urban rail rail_electric rail_fast ship" speed="36.11" length="12.69" width="3.50" customShape="1" shape="90.15,-257.85 91.87,-252.46 94.01,-245.76"/>
    </edge>
    <edge id="52154" from="33" to="19" priority="3" type="highway.residential" spreadType="center" length="11.26">
        <lane id="52154_0" index="0" disallow="pedestrian tram rail_urban rail rail_electric rail_fast ship" speed="36.11" length="11.28" width="3.50" customShape="1" shape="86.91,-244.97 85.20,-250.33 83.48,-255.72"/>
        <lane id="52154_1" index="1" disallow="pedestrian tram rail_urban rail rail_electric rail_fast ship" speed="36.11" length="11.26" width="3.50" customShape="1" shape="90.24,-246.05 88.54,-251.39 86.82,-256.78"/>
    </edge>
    <edge id="52162" from="19" to="28" priority="3" type="highway.residential" spreadType="center" length="12.96" shape="84.70,-257.68 77.35,-287.88">
        <lane id="52162_0" index="0" disallow="pedestrian tram rail_urban rail rail_electric rail_fast ship" speed="36.11" length="12.97" width="3.50" customShape="1" shape="82.57,-258.58 82.13,-259.95 81.24,-262.75 81.20,-262.87 81.16,-262.99 80.28,-265.76 79.40,-268.53 79.01,-269.73 78.63,-270.94"/>
        <lane id="52162_1" index="1" disallow="pedestrian tram rail_urban rail rail_electric rail_fast ship" speed="36.11" length="12.96" width="3.50" customShape="1" shape="85.91,-259.64 85.47,-261.01 84.57,-263.81 84.54,-263.93 84.50,-264.05 83.61,-266.82 82.73,-269.59 82.35,-270.79 81.97,-271.99"/>
    </edge>
    <edge id="52540" from="1" to="2" priority="3" type="highway.residential" spreadType="center" length="16.61">
        <lane id="52540_0" index="0" disallow="pedestrian tram rail_urban rail rail_electric rail_fast ship" speed="36.11" length="16.61" width="3.50" customShape="1" shape="95.97,-300.09 103.39,-303.77 110.85,-307.47"/>
    </edge>
    <edge id="52542" from="31" to="23" priority="3" type="highway.residential" spreadType="center" length="16.56">
        <lane id="52542_0" index="0" disallow="pedestrian tram rail_urban rail rail_electric rail_fast ship" speed="36.11" length="16.56" width="3.50" customShape="1" shape="113.92,-301.18 106.50,-297.50 99.08,-293.82"/>
        <lane id="52542_1" index="1" disallow="pedestrian tram rail_urban rail rail_electric rail_fast ship" speed="36.11" length="16.56" width="3.50" customShape="1" shape="112.36,-304.31 104.95,-300.63 97.53,-296.95"/>
    </edge>
    <edge id="52550" from="23" to="28" priority="3" type="highway.residential" spreadType="center" length="7.87" shape="96.96,-294.72 82.11,-285.07">
        <lane id="52550_0" index="0" disallow="pedestrian tram rail_urban rail rail_electric rail_fast ship" speed="36.11" length="7.87" width="3.50" customShape="1" shape="96.39,-292.48 95.24,-291.91 92.74,-290.67 92.62,-290.62 92.51,-290.56 91.03,-289.83 89.56,-289.10 89.44,-289.05 89.34,-288.99"/>
        <lane id="52550_1" index="1" disallow="pedestrian tram rail_urban rail rail_electric rail_fast ship" speed="36.11" length="7.90" width="3.50" customShape="1" shape="94.84,-295.62 93.69,-295.05 91.19,-293.81 91.08,-293.76 90.96,-293.70 89.48,-292.97 88.00,-292.24 87.89,-292.18 87.76,-292.12"/>
    </edge>
    <edge id="54245" from="28" to="1" priority="3" type="highway.residential" spreadType="center" length="7.87" shape="79.72,-289.69 94.63,-299.42">
        <lane id="54245_0" index="0" disallow="pedestrian tram rail_urban rail rail_electric rail_fast ship" speed="36.11" length="7.87" width="3.50" customShape="1" shape="86.23,-295.26 86.33,-295.32 86.45,-295.37 87.93,-296.11 89.41,-296.84 89.53,-296.90 89.64,-296.95 92.13,-298.19 93.28,-298.75"/>
    </edge>
    <edge id="54251" from="2" to="3" priority="3" type="highway.residential" spreadType="center" length="24.82">
        <lane id="54251_0" index="0" disallow="pedestrian tram rail_urban rail rail_electric rail_fast ship" speed="36.11" length="24.82" width="3.50" customShape="1" shape="113.52,-308.75 116.06,-309.92 122.96,-312.66 131.76,-316.05 136.47,-318.19"/>
    </edge>
    <edge id="54405" from="28" to="4" priority="3" type="highway.residential" spreadType="center" length="8.34" shape="79.38,-287.32 66.86,-308.38">
        <lane id="54405_0" index="0" disallow="pedestrian tram rail_urban rail rail_electric rail_fast ship" speed="36.11" length="8.34" width="3.50" customShape="1" shape="69.77,-299.01 69.73,-299.14 69.69,-299.26 69.08,-301.20 68.48,-303.14 68.44,-303.27 68.40,-303.39 67.63,-305.89 67.29,-306.97"/>
    </edge>
    <edge id="54412" from="5" to="6" priority="3" type="highway.residential" spreadType="center" length="27.65">
        <lane id="54412_0" index="0" disallow="pedestrian tram rail_urban rail rail_electric rail_fast ship" speed="36.11" length="27.65" width="3.50" customShape="1" shape="62.69,-319.92 59.88,-327.28 55.53,-338.99 52.68,-345.69"/>
    </edge>
    <edge id="54534" from="32" to="31" priority="3" type="highway.residential" spreadType="center" length="24.57">
        <lane id="54534_0" index="0" disallow="pedestrian tram rail_urban rail rail_electric rail_fast ship" speed="36.11" length="24.57" width="3.50" customShape="1" shape="138.01,-315.05 133.21,-312.87 124.38,-309.46 117.53,-306.74 115.29,-305.71"/>
    </edge>
    <edge id="54535" from="32" to="31" priority="3" type="highway.residential" spreadType="center" length="24.66">
        <lane id="54535_0" index="0" disallow="pedestrian tram rail_urban rail rail_electric rail_fast ship" speed="36.11" length="24.66" width="3.50" customShape="1" shape="138.01,-315.05 133.10,-312.40 119.72,-304.23 116.72,-302.62"/>
    </edge>
    <edge id="54720" from="30" to="29" priority="3" type="highway.residential" spreadType="center" length="27.91">
        <lane id="54720_0" index="0" disallow="pedestrian tram rail_urban rail rail_electric rail_fast ship" speed="36.11" length="27.91" width="3.50" customShape="1" shape="55.86,-347.14 58.36,-342.16 63.45,-333.36 66.92,-327.14 69.10,-322.59"/>
    </edge>
    <edge id="54721" from="30" to="29" priority="3" type="highway.residential" spreadType="center" length="27.66">
        <lane id="54721_0" index="0" disallow="pedestrian tram rail_urban rail rail_electric rail_fast ship" speed="36.11" length="27.66" width="3.50" customShape="1" shape="55.86,-347.14 58.75,-340.35 63.13,-328.57 65.88,-321.36"/>
    </edge>
    <edge id="54894" from="28" to="7" priority="3" type="highway.residential" spreadType="center" length="12.95" shape="82.49,-288.83 89.70,-259.28">
        <lane id="54894_0" index="0" disallow="pedestrian tram rail_urban rail rail_electric rail_fast ship" speed="36.11" length="12.95" width="3.50" customShape="1" shape="85.30,-273.05 85.68,-271.85 86.07,-270.65 86.95,-267.88 87.83,-265.11 87.87,-264.99 87.91,-264.87 88.80,-262.07 89.24,-260.71"/>
    </edge>
    <edge id="54918" from="8" to="9" priority="3" type="highway.residential" spreadType="center" length="29.11">
        <lane id="54918_0" index="0" disallow="pedestrian tram rail_urban rail rail_electric rail_fast ship" speed="36.11" length="29.11" width="3.50" customShape="1" shape="94.08,-245.52 95.76,-239.62 99.54,-223.34 101.25,-217.32"/>
    </edge>
    <edge id="55041" from="34" to="33" priority="3" type="highway.residential" spreadType="center" length="27.58">
        <lane id="55041_0" index="0" disallow="pedestrian tram rail_urban rail rail_electric rail_fast ship" speed="36.11" length="27.58" width="3.50" customShape="1" shape="97.91,-216.27 95.86,-222.05 89.25,-238.19 87.92,-241.97"/>
    </edge>
    <edge id="55042" from="34" to="33" priority="3" type="highway.residential" spreadType="center" length="27.47">
        <lane id="55042_0" index="0" disallow="pedestrian tram rail_urban rail rail_electric rail_fast ship" speed="36.11" length="27.47" width="3.50" customShape="1" shape="97.91,-216.27 96.18,-222.37 92.40,-238.65 91.19,-242.90"/>
    </edge>

    <junction id="1" type="priority" x="94.63" y="-299.42" incLanes="54245_0" intLanes=":1_0_0" shape="96.75,-298.52 95.19,-301.65 92.51,-300.32 94.06,-297.19" rightOfWay="edgePriority">
        <request index="0" response="0" foes="0" cont="0"/>
    </junction>
    <junction id="19" type="priority" x="84.70" y="-257.68" incLanes="52154_0 52154_1" intLanes=":19_0_0 :19_0_1" shape="81.82,-255.18 88.49,-257.31 87.57,-260.17 80.91,-258.04" rightOfWay="edgePriority">
        <request index="0" response="00" foes="00" cont="0"/>
        <request index="1" response="00" foes="00" cont="0"/>
    </junction>
    <junction id="2" type="priority" x="112.18" y="-308.13" incLanes="52540_0" intLanes=":2_0_0" shape="114.26,-307.16 112.79,-310.34 110.08,-309.04 111.63,-305.90" rightOfWay="edgePriority">
        <request index="0" response="0" foes="0" cont="0"/>
    </junction>
    <junction id="21" type="priority" x="71.84" y="-310.02" incLanes="52106_0 52106_1" intLanes=":21_0_0 :21_0_1" shape="68.96,-307.50 75.62,-309.65 74.66,-312.56 68.04,-310.29" rightOfWay="edgePriority">
        <request index="0" response="00" foes="00" cont="0"/>
        <request index="1" response="00" foes="00" cont="0"/>
    </junction>
    <junction id="23" type="priority" x="96.96" y="-294.72" incLanes="52542_0 52542_1" intLanes=":23_0_0 :23_0_1" shape="99.86,-292.25 96.75,-298.52 94.06,-297.19 97.17,-290.91" rightOfWay="edgePriority">
        <request index="0" response="00" foes="00" cont="0"/>
        <request index="1" response="00" foes="00" cont="0"/>
    </junction>
    <junction id="28" type="priority" x="80.82" y="-288.32" incLanes="52162_0 52162_1 52550_0 52550_1 52098_0 52098_1" intLanes=":28_0_0 :28_1_0 :28_2_0 :28_3_0 :28_4_0 :28_5_0" shape="76.97,-270.39 86.97,-273.58 86.12,-276.92 85.81,-279.84 86.07,-282.36 86.87,-284.46 88.23,-286.16 90.14,-287.44 85.45,-296.83 82.37,-296.23 81.07,-296.76 79.93,-297.83 78.94,-299.46 78.11,-301.63 68.10,-298.49">
        <request index="0" response="000000" foes="001000" cont="0"/>
        <request index="1" response="110000" foes="111000" cont="0"/>
        <request index="2" response="100000" foes="100000" cont="0"/>
        <request index="3" response="100011" foes="100011" cont="0"/>
        <request index="4" response="000000" foes="000010" cont="0"/>
        <request index="5" response="000000" foes="001110" cont="0"/>
    </junction>
    <junction id="29" type="priority" x="69.71" y="-321.15" incLanes="54720_0 54721_0" intLanes=":29_0_0 :29_1_0" shape="65.40,-317.76 71.90,-320.36 70.74,-323.21 64.25,-320.74">
        <request index="0" response="00" foes="00" cont="0"/>
        <request index="1" response="00" foes="00" cont="0"/>
    </junction>
    <junction id="3" type="dead_end" x="136.47" y="-318.19" incLanes="54251_0" intLanes="" shape="135.74,-319.78 137.19,-316.60" rightOfWay="edgePriority"/>
    <junction id="30" type="dead_end" x="55.86" y="-347.14" incLanes="" intLanes="" shape="54.30,-346.36 57.43,-347.93 54.25,-346.46 57.47,-347.83"/>
    <junction id="31" type="priority" x="113.71" y="-304.98" incLanes="54534_0 54535_0" intLanes=":31_0_0 :31_1_0" shape="117.45,-301.03 114.56,-307.30 111.58,-305.88 114.69,-299.61">
        <request index="0" response="00" foes="00" cont="0"/>
        <request index="1" response="00" foes="00" cont="0"/>
    </junction>
    <junction id="32" type="dead_end" x="138.01" y="-315.05" incLanes="" intLanes="" shape="137.28,-316.64 138.73,-313.45 137.18,-316.59 138.84,-313.51"/>
    <junction id="33" type="priority" x="90.71" y="-244.61" incLanes="55042_0 55041_0" intLanes=":33_0_0 :33_1_0" shape="86.23,-241.49 92.87,-243.38 91.91,-246.59 85.25,-244.44">
        <request index="0" response="00" foes="00" cont="0"/>
        <request index="1" response="00" foes="00" cont="0"/>
    </junction>
    <junction id="34" type="dead_end" x="97.91" y="-216.27" incLanes="" intLanes="" shape="99.59,-216.75 96.23,-215.79 99.56,-216.85 96.26,-215.69"/>
    <junction id="4" type="priority" x="66.86" y="-308.38" incLanes="54405_0" intLanes=":4_0_0" shape="65.62,-306.45 68.97,-307.49 68.03,-310.34 64.72,-309.19" rightOfWay="edgePriority">
        <request index="0" response="0" foes="0" cont="0"/>
    </junction>
    <junction id="5" type="priority" x="63.22" y="-318.53" incLanes="52108_0" intLanes=":5_0_0" shape="62.14,-316.49 65.40,-317.77 64.32,-320.55 61.05,-319.30" rightOfWay="edgePriority">
        <request index="0" response="0" foes="0" cont="0"/>
    </junction>
    <junction id="6" type="dead_end" x="52.68" y="-345.69" incLanes="54412_0" intLanes="" shape="51.07,-345.01 54.29,-346.38" rightOfWay="edgePriority"/>
    <junction id="7" type="priority" x="89.70" y="-259.28" incLanes="54894_0" intLanes=":7_0_0" shape="88.49,-257.32 91.82,-258.38 90.91,-261.24 87.57,-260.17" rightOfWay="edgePriority">
        <request index="0" response="0" foes="0" cont="0"/>
    </junction>
    <junction id="8" type="priority" x="94.05" y="-245.64" incLanes="52152_0" intLanes=":8_0_0" shape="92.40,-245.04 95.77,-246.00 95.68,-246.29 92.34,-245.23" rightOfWay="edgePriority">
        <request index="0" response="0" foes="0" cont="0"/>
    </junction>
    <junction id="9" type="dead_end" x="101.25" y="-217.32" incLanes="54918_0" intLanes="" shape="102.93,-217.80 99.57,-216.84" rightOfWay="edgePriority"/>

    <connection from="52098" to="54245" fromLane="0" toLane="0" contPos="-4.00" shape="76.44,-301.13 77.31,-298.81 78.20,-297.19 79.36,-295.76 80.34,-295.01 81.47,-294.53 82.68,-294.35 83.91,-294.45 85.66,-295.00 86.23,-295.26" via=":28_4_0" dir="r" state="M"/>
    <connection from="52098" to="54894" fromLane="1" toLane="0" contPos="-4.00" shape="73.10,-300.06 74.49,-296.21 76.59,-291.55 82.44,-280.17 84.28,-275.95 85.30,-273.05" via=":28_5_0" dir="s" state="M"/>
    <connection from="52106" to="52098" fromLane="0" toLane="0" contPos="-4.00" via=":21_0_0" dir="s" state="M"/>
    <connection from="52106" to="52098" fromLane="1" toLane="1" contPos="-4.00" via=":21_0_1" dir="s" state="M"/>
    <connection from="52108" to="54412" fromLane="0" toLane="0" contPos="-4.00" via=":5_0_0" dir="s" state="M"/>
    <connection from="52152" to="54918" fromLane="0" toLane="0" contPos="-4.00" via=":8_0_0" dir="s" state="M"/>
    <connection from="52154" to="52162" fromLane="0" toLane="0" contPos="-4.00" via=":19_0_0" dir="s" state="M"/>
    <connection from="52154" to="52162" fromLane="1" toLane="1" contPos="-4.00" via=":19_0_1" dir="s" state="M"/>
    <connection from="52162" to="54405" fromLane="0" toLane="0" contPos="-4.00" shape="78.63,-270.94 74.20,-284.98 69.77,-299.01" via=":28_0_0" dir="s" state="M"/>
    <connection from="52162" to="54245" fromLane="1" toLane="0" contPos="-4.00" shape="81.97,-271.99 80.76,-276.34 80.06,-280.22 79.84,-283.03 79.95,-285.85 80.37,-288.06 80.91,-289.66 81.67,-291.17 82.66,-292.54 83.86,-293.73 85.24,-294.72 86.23,-295.26" via=":28_1_0" dir="l" state="m"/>
    <connection from="52540" to="54251" fromLane="0" toLane="0" contPos="-4.00" via=":2_0_0" dir="s" state="M"/>
    <connection from="52542" to="52550" fromLane="0" toLane="0" contPos="-4.00" via=":23_0_0" dir="s" state="M"/>
    <connection from="52542" to="52550" fromLane="1" toLane="1" contPos="-4.00" via=":23_0_1" dir="s" state="M"/>
    <connection from="52550" to="54894" fromLane="0" toLane="0" contPos="-4.00" shape="89.34,-288.99 87.87,-288.12 86.57,-287.02 85.52,-285.69 84.75,-284.18 84.27,-282.54 84.06,-280.86 84.11,-278.59 84.56,-275.79 85.30,-273.05" via=":28_2_0" dir="r" state="m"/>
    <connection from="52550" to="54405" fromLane="1" toLane="0" contPos="-4.00" shape="87.76,-292.12 84.99,-290.92 82.67,-290.23 80.88,-289.93 79.06,-289.89 77.26,-290.17 75.57,-290.82 74.05,-291.83 72.77,-293.11 71.71,-294.59 70.60,-296.75 69.77,-299.01" via=":28_3_0" dir="l" state="m"/>
    <connection from="54245" to="52540" fromLane="0" toLane="0" contPos="-4.00" via=":1_0_0" dir="s" state="M"/>
    <connection from="54405" to="52108" fromLane="0" toLane="0" contPos="-4.00" via=":4_0_0" dir="s" state="M"/>
    <connection from="54534" to="52542" fromLane="0" toLane="1" contPos="-4.00" via=":31_0_0" dir="s" state="M"/>