<!-- generated on 2020-12-18 16:00:38.444709 by ipykernel_launcher.py v1_2_0+5214-53edc58fcd
-->
<edges>
	<edge from="1" function="normal" id="3498" length="9.58609589835717" numLanes="1" priority="1" speed="36.11111111111111" spreadType="center" to="2">
		<lane allow="moped bicycle pedestrian custom1 trailer evehicle rail_urban ship private truck vip custom2 authority delivery rail_electric taxi tram army hov coach motorcycle passenger bus rail emergency" index="0" length="9.58609589835717" shape="86.57845,70.13560000000001 76.9977,70.45570000000001" speed="36.11111111111111" width="4.771086938004798"/>
	</edge>
	<edge from="2" function="normal" id="3716" length="18.680147901632267" numLanes="1" priority="1" speed="36.11111111111111" spreadType="center" to="3">
		<lane allow="moped bicycle pedestrian custom1 trailer evehicle rail_urban ship private vip custom2 authority delivery rail_electric taxi tram army hov coach motorcycle passenger rail emergency" index="0" length="18.680147901632267" shape="76.9977,70.45570000000001 73.01384999999999,71.8971 70.15825000000001,74.39975 69.10675,76.78985 68.4041,78.81809999999999 68.54910000000001,81.9631 69.54025,84.51805" speed="36.11111111111111" width="3.353872355949167"/>
	</edge>
	<edge from="4" function="normal" id="3509" length="15.632980848532549" numLanes="3" priority="1" speed="36.11111111111111" spreadType="center" to="5">
		<lane allow="moped bicycle pedestrian custom1 trailer evehicle rail_urban ship private truck vip custom2 authority delivery rail_electric taxi tram army hov coach motorcycle passenger bus rail emergency" index="0" length="15.632980848532549" shape="-24.2146,5.11625 -19.8184,2.9354 -10.20795,-1.84815" speed="36.11111111111111" width="3.231760271121606"/>
		<lane allow="moped bicycle pedestrian custom1 trailer evehicle rail_urban ship private truck vip custom2 authority delivery rail_electric taxi tram army hov coach motorcycle passenger bus rail emergency" index="1" length="15.632980848532549" shape="-22.82505,7.917299999999999 -18.38765,5.715999999999999 -8.777149999999999,0.93245" speed="36.11111111111111" width="3.0217924167619454"/>
		<lane allow="moped bicycle pedestrian custom1 trailer evehicle rail_urban ship private truck vip custom2 authority delivery rail_electric taxi tram army hov coach motorcycle passenger bus rail emergency" index="2" length="15.632980848532549" shape="-21.4739,10.64095 -16.981299999999997,8.4123 -7.4704,3.6917" speed="36.11111111111111" width="3.058956104621315"/>
	</edge>
	<edge from="5" function="normal" id="3672" length="43.429643178518916" numLanes="1" priority="1" speed="36.11111111111111" spreadType="center" to="6">
		<lane allow="moped bicycle pedestrian custom1 trailer evehicle rail_urban ship private vip custom2 authority delivery rail_electric taxi tram army hov coach motorcycle passenger rail emergency" index="0" length="43.429643178518916" shape="-7.4704,3.6917 -2.3132,1.15135 1.2696,-0.33314999999999995 5.11545,-1.6918 7.8961500000000004,-2.6620999999999997 10.382100000000001,-3.1589500000000004 12.61695,-3.3713499999999996 14.95315,-3.25435 16.59765,-3.1199500000000002 17.7071,-2.8636999999999997 18.64685,-2.2807000000000004 19.5661,-0.9305000000000001 20.7218,0.9978500000000001 23.38925,5.2353000000000005 24.963,8.28705 26.43475,11.3992" speed="36.11111111111111" width="2.9171821763475805"/>
	</edge>
	<edge from="6" function="normal" id="3456" length="24.71092057982317" numLanes="3" priority="1" speed="36.11111111111111" spreadType="center" to="7">
		<lane allow="moped bicycle pedestrian custom1 trailer evehicle rail_urban ship private truck vip custom2 authority delivery rail_electric taxi tram army hov coach motorcycle passenger bus rail emergency" index="0" length="24.71092057982317" shape="31.961399999999998,8.6395 35.557199999999995,15.833100000000002 39.41055,23.7502 42.7732,30.858600000000003" speed="36.11111111111111" width="3.0476685974692153"/>
		<lane allow="moped bicycle pedestrian custom1 trailer evehicle rail_urban ship private truck vip custom2 authority delivery rail_electric taxi tram army hov coach motorcycle passenger bus rail emergency" index="1" length="24.71092057982317" shape="29.132550000000002,10.033750000000001 32.99265,17.60065 36.6709,25.166249999999998 40.109750000000005,32.1967" speed="36.11111111111111" width="2.9148241130469597"/>
		<lane allow="moped bicycle pedestrian custom1 trailer evehicle rail_urban ship private truck vip custom2 authority delivery rail_electric taxi tram army hov coach motorcycle passenger bus rail emergency" index="2" length="24.71092057982317" shape="26.43475,11.3992 30.36325,19.1614 34.1517,26.863950000000003 37.523250000000004,33.510549999999995" speed="36.11111111111111" width="2.8880043801905853"/>
	</edge>
	<edge from="7" function="normal" id="3462" length="8.466645302154802" numLanes="3" priority="1" speed="36.11111111111111" spreadType="center" to="8">
		<lane allow="moped bicycle pedestrian custom1 trailer evehicle rail_urban ship private truck vip custom2 authority delivery rail_electric taxi tram army hov coach motorcycle passenger bus rail emergency" index="0" length="8.466645302154802" shape="42.7732,30.858600000000003 46.6525,38.421350000000004" speed="36.11111111111111" width="3.0476685974692153"/>
		<lane allow="moped bicycle pedestrian custom1 trailer evehicle rail_urban ship private truck vip custom2 authority delivery rail_electric taxi tram army hov coach motorcycle passenger bus rail emergency" index="1" length="8.466645302154802" shape="40.109750000000005,32.1967 43.92785,39.8064" speed="36.11111111111111" width="2.9148241130469597"/>
		<lane allow="moped bicycle pedestrian custom1 trailer evehicle rail_urban ship private truck vip custom2 authority delivery rail_electric taxi tram army hov coach motorcycle passenger bus rail emergency" index="2" length="8.466645302154802" shape="37.523250000000004,33.510549999999995 41.2639,41.106049999999996" speed="36.11111111111111" width="2.8880043801905853"/>
	</edge>
	<edge from="8" function="normal" id="3468" length="22.238196627283095" numLanes="3" priority="1" speed="36.11111111111111" spreadType="center" to="9">
		<lane allow="moped bicycle pedestrian custom1 trailer evehicle rail_urban ship private truck vip custom2 authority delivery rail_electric taxi tram army hov coach motorcycle passenger bus rail emergency" index="0" length="22.238196627283095" shape="46.6525,38.421350000000004 51.251850000000005,47.712900000000005 56.6285,58.3939" speed="36.11111111111111" width="3.0326639856733246"/>
		<lane allow="moped bicycle pedestrian custom1 trailer evehicle rail_urban ship private truck vip custom2 authority delivery rail_electric taxi tram army hov coach motorcycle passenger bus rail emergency" index="1" length="22.238196627283095" shape="43.92785,39.8064 48.5741,49.128150000000005 53.82595,59.73395" speed="36.11111111111111" width="2.9980111023810445"/>
		<lane allow="moped bicycle pedestrian custom1 trailer evehicle rail_urban ship private truck vip custom2 authority delivery rail_electric taxi tram army hov coach motorcycle passenger bus rail emergency" index="2" length="22.238196627283095" shape="41.2639,41.106049999999996 45.880250000000004,50.5051 51.0696,61.065650000000005" speed="36.11111111111111" width="2.9350875710956212"/>
	</edge>
	<edge from="9" function="normal" id="3713" length="29.142816807837434" numLanes="3" priority="1" speed="36.11111111111111" spreadType="center" to="10">
		<lane allow="moped bicycle pedestrian custom1 trailer evehicle rail_urban ship private truck vip custom2 authority delivery rail_electric taxi tram army hov coach motorcycle passenger bus rail emergency" index="0" length="29.142816807837434" shape="56.6285,58.3939 60.544650000000004,66.38705 64.49125,74.3336 68.24735,81.94425 69.4207,84.57679999999999" speed="36.11111111111111" width="3.1576335062828313"/>
		<lane allow="moped bicycle pedestrian custom1 trailer evehicle rail_urban ship private truck vip custom2 authority delivery rail_electric taxi tram army hov coach motorcycle passenger rail emergency" index="1" length="29.142816807837434" shape="53.82595,59.73395 57.263450000000006,66.67195000000001 61.20995,74.61855 65.3806,83.11585 66.6656,85.9302" speed="36.11111111111111" width="2.9348672269797813"/>
		<lane allow="moped bicycle pedestrian custom1 trailer evehicle rail_urban ship private truck vip custom2 authority delivery rail_electric taxi tram army hov coach motorcycle passenger bus rail emergency" index="2" length="29.142816807837434" shape="51.0696,61.065650000000005 53.9022,66.76570000000001 57.73695,74.4676 62.575500000000005,84.27895 63.961650000000006,87.25845000000001" speed="36.11111111111111" width="3.0673220453679098"/>
	</edge>
	<edge from="5" function="normal" id="3636" length="10.130444963203738" numLanes="2" priority="1" speed="36.11111111111111" spreadType="center" to="11">
		<lane allow="moped bicycle pedestrian custom1 trailer evehicle rail_urban ship private truck vip custom2 authority delivery rail_electric taxi tram army hov coach motorcycle passenger bus rail emergency" index="0" length="10.130444963203738" shape="-10.20795,-1.84815 -1.19685,-6.5335" speed="36.11111111111111" width="3.232186618993402"/>
		<lane allow="moped bicycle pedestrian custom1 trailer evehicle rail_urban ship private truck vip custom2 authority delivery rail_electric taxi tram army hov coach motorcycle passenger bus rail emergency" index="1" length="10.130444963203738" shape="-8.777149999999999,0.93245 0.24755,-3.6698000000000004" speed="36.11111111111111" width="3.025465626973805"/>
	</edge>
	<edge from="11" function="normal" id="3658" length="24.834013362889845" numLanes="2" priority="1" speed="36.11111111111111" spreadType="center" to="12">
		<lane allow="moped bicycle pedestrian custom1 trailer evehicle rail_urban ship private truck vip custom2 authority delivery rail_electric taxi tram army hov coach motorcycle passenger bus rail emergency" index="0" length="24.834013362889845" shape="-1.19685,-6.5335 1.69895,-8.0394 4.35445,-9.42015 7.0714,-10.83285 10.0597,-12.38675 12.76135,-13.79165 15.40605,-15.1668 18.1216,-16.5788 20.893349999999998,-18.020049999999998" speed="36.11111111111111" width="3.308908788407441"/>
		<lane allow="moped bicycle pedestrian custom1 trailer evehicle rail_urban ship private truck vip custom2 authority delivery rail_electric taxi tram army hov coach motorcycle passenger bus rail emergency" index="1" length="24.834013362889845" shape="0.24755,-3.6698000000000004 3.11555,-5.1324000000000005 5.78655,-6.4944500000000005 8.52485,-7.8908000000000005 11.489450000000001,-9.40255 14.1999,-10.7848 16.84985,-12.136050000000001 19.5843,-13.53035 22.3711,-14.9515" speed="36.11111111111111" width="3.1057834261261683"/>
	</edge>
	<edge from="12" function="normal" id="3676" length="16.155928389455166" numLanes="2" priority="1" speed="36.11111111111111" spreadType="center" to="13">
		<lane allow="moped bicycle pedestrian custom1 trailer evehicle rail_urban ship private truck vip custom2 authority delivery rail_electric taxi tram army hov coach motorcycle passenger bus rail emergency" index="0" length="16.155928389455166" shape="20.893349999999998,-18.020049999999998 26.91305,-21.0263 35.3471,-25.2383" speed="36.11111111111111" width="3.503454903377521"/>
		<lane allow="moped bicycle pedestrian custom1 trailer evehicle rail_urban ship private truck vip custom2 authority delivery rail_electric taxi tram army hov coach motorcycle passenger bus rail emergency" index="1" length="16.155928389455166" shape="22.3711,-14.9515 28.39575,-17.936799999999998 36.89195,-22.1467" speed="36.11111111111111" width="3.308224526842155"/>
	</edge>
	<edge from="13" function="normal" id="3525" length="17.280435272672808" numLanes="3" priority="1" speed="36.11111111111111" spreadType="center" to="14">
		<lane allow="moped bicycle pedestrian custom1 trailer evehicle rail_urban ship private truck vip custom2 authority delivery rail_electric taxi tram army hov coach motorcycle passenger bus rail emergency" index="0" length="17.280435272672808" shape="33.72405,-28.5664 42.451350000000005,-32.86145 49.23965,-36.20225" speed="36.11111111111111" width="3.873902747875843"/>
		<lane allow="moped bicycle pedestrian custom1 trailer evehicle rail_urban ship private truck vip custom2 authority delivery rail_electric taxi tram army hov coach motorcycle passenger bus rail emergency" index="1" length="17.280435272672808" shape="35.3471,-25.2383 44.074250000000006,-29.53185 50.8735,-32.8769" speed="36.11111111111111" width="3.511789538113014"/>
		<lane allow="moped bicycle pedestrian custom1 trailer evehicle rail_urban ship private truck vip custom2 authority delivery rail_electric taxi tram army hov coach motorcycle passenger bus rail emergency" index="2" length="17.280435272672808" shape="36.89195,-22.1467 45.570750000000004,-26.415300000000002 52.3983,-29.7734" speed="36.11111111111111" width="3.379496749517598"/>
	</edge>
	<edge from="5" function="normal" id="3600" length="24.197467511365534" numLanes="1" priority="1" speed="36.11111111111111" spreadType="center" to="15">
		<lane allow="moped bicycle pedestrian custom1 trailer evehicle rail_urban ship private vip custom2 authority delivery rail_electric taxi tram army hov coach motorcycle passenger rail emergency" index="0" length="24.197467511365534" shape="-10.20795,-1.84815 -5.71965,-4.2431 -3.72665,-5.4332 -2.1235999999999997,-6.3438 -1.3804999999999998,-6.82375 -0.9564,-7.4113500000000005 -0.9206000000000001,-8.2183 -1.3277999999999999,-9.6299 -2.1287,-11.59605 -3.10915,-13.6944 -5.90205,-19.69635" speed="36.11111111111111" width="3.232186618993402"/>
	</edge>
	<edge from="15" function="normal" id="3542" length="74.24617535235409" numLanes="3" priority="1" speed="36.11111111111111" spreadType="center" to="16">
		<lane allow="moped bicycle pedestrian custom1 trailer evehicle rail_urban ship private truck vip custom2 authority delivery rail_electric taxi tram army hov coach motorcycle passenger bus rail emergency" index="0" length="74.24617535235409" shape="-5.90205,-19.69635 -10.06335,-28.23505 -14.1166,-37.165049999999994 -17.88865,-45.88355 -21.513399999999997,-55.1275 -25.2284,-64.18535 -28.91205,-73.21295 -32.5961,-82.2714 -34.88315,-88.06739999999999" speed="36.11111111111111" width="2.8235974571457576"/>
		<lane allow="moped bicycle pedestrian custom1 trailer evehicle rail_urban ship private truck vip custom2 authority delivery rail_electric taxi tram army hov coach motorcycle passenger bus rail emergency" index="1" length="74.24617535235409" shape="-3.0584000000000002,-21.189 -7.3018,-29.7438 -11.383949999999999,-38.52719999999999 -15.124600000000001,-47.2154 -18.778599999999997,-56.3357 -22.4317,-65.39455000000001 -26.08315,-74.3302 -29.67445,-83.39 -32.0657,-89.5137" speed="36.11111111111111" width="2.969358961122755"/>
		<lane allow="moped bicycle pedestrian custom1 trailer evehicle rail_urban ship private truck vip custom2 authority delivery rail_electric taxi tram army hov coach motorcycle passenger bus rail emergency" index="2" length="74.24617535235409" shape="-0.41035,-22.57895 -4.6331500000000005,-31.258899999999997 -8.6835,-39.9812 -12.45505,-48.669 -15.9499,-57.46835 -19.605400000000003,-66.69645 -23.25725,-75.66295 -26.72405,-84.66284999999999 -29.2352,-90.96674999999999" speed="36.11111111111111" width="2.962201547835665"/>
	</edge>
	<edge from="17" function="normal" id="3532" length="13.634900230131366" numLanes="2" priority="1" speed="36.11111111111111" spreadType="center" to="18">
		<lane allow="moped bicycle pedestrian custom1 trailer evehicle rail_urban ship private truck vip custom2 authority delivery rail_electric taxi tram army hov coach motorcycle passenger bus rail emergency" index="0" length="13.634900230131366" shape="56.944,-20.521549999999998 50.01135,-17.1327 44.66695,-14.520150000000001" speed="36.11111111111111" width="3.6072313177837683"/>
		<lane allow="moped bicycle pedestrian custom1 trailer evehicle rail_urban ship private truck vip custom2 authority delivery rail_electric taxi tram army hov coach motorcycle passenger bus rail emergency" index="1" length="13.634900230131366" shape="55.339349999999996,-23.7875 48.480850000000004,-20.4343 43.09,-17.79885" speed="36.11111111111111" width="3.623546501702441"/>
	</edge>
	<edge from="18" function="normal" id="3534" length="6.575577396130327" numLanes="3" priority="1" speed="36.11111111111111" spreadType="center" to="19">
		<lane allow="moped bicycle pedestrian custom1 trailer evehicle rail_urban ship private truck vip custom2 authority delivery rail_electric taxi tram army hov coach motorcycle passenger bus rail emergency" index="0" length="6.575577396130327" shape="44.66695,-14.520150000000001 40.2441,-8.4983" speed="36.11111111111111" width="3.245737241367514"/>
		<lane allow="moped bicycle pedestrian custom1 trailer evehicle rail_urban ship private truck vip custom2 authority delivery rail_electric taxi tram army hov coach motorcycle passenger bus rail emergency" index="1" length="6.575577396130327" shape="44.66695,-14.520150000000001 38.75495,-11.58015" speed="36.11111111111111" width="3.602433613545153"/>
		<lane allow="moped bicycle pedestrian custom1 trailer evehicle rail_urban ship private truck vip custom2 authority delivery rail_electric taxi tram army hov coach motorcycle passenger bus rail emergency" index="2" length="6.575577396130327" shape="43.09,-17.79885 37.20195,-14.87155" speed="36.11111111111111" width="3.671307975367905"/>
	</edge>
	<edge from="19" function="normal" id="3536" length="6.6083636571393365" numLanes="3" priority="1" speed="36.11111111111111" spreadType="center" to="20">
		<lane allow="moped bicycle pedestrian custom1 trailer evehicle rail_urban ship private truck vip custom2 authority delivery rail_electric taxi tram army hov coach motorcycle passenger bus rail emergency" index="0" length="6.6083636571393365" shape="40.2441,-8.4983 34.26455,-5.60885" speed="36.11111111111111" width="3.190167196245363"/>
		<lane allow="moped bicycle pedestrian custom1 trailer evehicle rail_urban ship private truck vip custom2 authority delivery rail_electric taxi tram army hov coach motorcycle passenger bus rail emergency" index="1" length="6.6083636571393365" shape="38.75495,-11.58015 32.8148,-8.6354" speed="36.11111111111111" width="3.5215687697388507"/>
		<lane allow="moped bicycle pedestrian custom1 trailer evehicle rail_urban ship private truck vip custom2 authority delivery rail_electric taxi tram army hov coach motorcycle passenger bus rail emergency" index="2" length="6.6083636571393365" shape="37.20195,-14.87155 31.2919,-11.9149" speed="36.11111111111111" width="3.6773714878973025"/>
	</edge>
	<edge from="20" function="normal" id="3620" length="6.669397413559938" numLanes="2" priority="1" speed="36.11111111111111" spreadType="center" to="21">
		<lane allow="moped bicycle pedestrian custom1 trailer evehicle rail_urban ship private truck vip custom2 authority delivery rail_electric taxi tram army hov coach motorcycle passenger bus rail emergency" index="0" length="6.669397413559938" shape="32.8148,-8.6354 26.8373,-5.6773" speed="36.11111111111111" width="3.45582194564477"/>
		<lane allow="moped bicycle pedestrian custom1 trailer evehicle rail_urban ship private truck vip custom2 authority delivery rail_electric taxi tram army hov coach motorcycle passenger bus rail emergency" index="1" length="6.669397413559938" shape="31.2919,-11.9149 25.28445,-8.9018" speed="36.11111111111111" width="3.702039012490278"/>
	</edge>
	<edge from="21" function="normal" id="3662" length="24.644895567956993" numLanes="2" priority="1" speed="36.11111111111111" spreadType="center" to="22">
		<lane allow="moped bicycle pedestrian custom1 trailer evehicle rail_urban ship private truck vip custom2 authority delivery rail_electric taxi tram army hov coach motorcycle passenger bus rail emergency" index="0" length="24.644895567956993" shape="26.8373,-5.6773 24.02075,-4.28345 21.243949999999998,-2.9093 18.594549999999998,-1.5980999999999999 15.87245,-0.25095 13.00075,1.17025 10.21195,2.5504 7.5099,3.8876 4.7493,5.2539" speed="36.11111111111111" width="3.213340816035547"/>
		<lane allow="moped bicycle pedestrian custom1 trailer evehicle rail_urban ship private truck vip custom2 authority delivery rail_electric taxi tram army hov coach motorcycle passenger bus rail emergency" index="1" length="24.644895567956993" shape="25.28445,-8.9018 22.479950000000002,-7.495100000000001 19.7194,-6.11125 17.071350000000002,-4.7825999999999995 14.35465,-3.4211500000000004 11.45285,-1.96355 8.6841,-0.57345 5.994249999999999,0.7757500000000002 3.1977,2.1788" speed="36.11111111111111" width="3.675404375031406"/>
	</edge>
	<edge from="22" function="normal" id="3640" length="10.509859510002975" numLanes="2" priority="1" speed="36.11111111111111" spreadType="center" to="23">
		<lane allow="moped bicycle pedestrian custom1 trailer evehicle rail_urban ship private truck vip custom2 authority delivery rail_electric taxi tram army hov coach motorcycle passenger bus rail emergency" index="0" length="10.509859510002975" shape="4.7493,5.2539 -5.0842,10.075299999999999" speed="36.11111111111111" width="3.167378581729693"/>
		<lane allow="moped bicycle pedestrian custom1 trailer evehicle rail_urban ship private truck vip custom2 authority delivery rail_electric taxi tram army hov coach motorcycle passenger bus rail emergency" index="1" length="10.509859510002975" shape="3.1977,2.1788 -6.2199,6.8442" speed="36.11111111111111" width="3.675404375031406"/>
	</edge>
	<edge from="23" function="normal" id="3517" length="14.496753904957334" numLanes="3" priority="1" speed="36.11111111111111" spreadType="center" to="24">
		<lane allow="moped bicycle pedestrian custom1 trailer evehicle rail_urban ship private truck vip custom2 authority delivery rail_electric taxi tram army hov coach motorcycle passenger bus rail emergency" index="0" length="14.496753904957334" shape="-3.3669000000000002,14.529250000000001 -12.580400000000001,18.96865 -16.3289,21.012500000000003" speed="36.11111111111111" width="5.130906839926057"/>
		<lane allow="moped bicycle pedestrian custom1 trailer evehicle rail_urban ship private truck vip custom2 authority delivery rail_electric taxi tram army hov coach motorcycle passenger bus rail emergency" index="1" length="14.496753904957334" shape="-5.0842,10.075299999999999 -14.47465,15.117350000000002 -18.16015,17.32105" speed="36.11111111111111" width="3.110520139783699"/>
		<lane allow="moped bicycle pedestrian custom1 trailer evehicle rail_urban ship private truck vip custom2 authority delivery rail_electric taxi tram army hov coach motorcycle passenger bus rail emergency" index="2" length="14.496753904957334" shape="-6.2199,6.8442 -16.0016,12.09185 -19.667,14.2835" speed="36.11111111111111" width="3.6645851129425284"/>
	</edge>
	<edge from="20" function="normal" id="3668" length="38.24329000786905" numLanes="1" priority="1" speed="36.11111111111111" spreadType="center" to="15">
		<lane allow="moped bicycle pedestrian custom1 trailer evehicle rail_urban ship private vip custom2 authority delivery rail_electric taxi tram army hov coach motorcycle passenger rail emergency" index="0" length="38.24329000786905" shape="31.2919,-11.9149 27.95485,-10.8062 25.020699999999998,-9.99935 22.52505,-9.25175 20.1097,-8.9482 17.90785,-8.86325 16.37165,-8.9916 14.401399999999999,-9.1984 12.7973,-9.475750000000001 10.849499999999999,-9.7891 9.0408,-10.546100000000001 7.5049,-11.7962 6.06525,-13.7058 3.36495,-17.38355 -0.41035,-22.57895" speed="36.11111111111111" width="3.0119886487169896"/>
	</edge>
	<edge from="20" function="normal" id="3602" length="16.407319351256643" numLanes="1" priority="1" speed="36.11111111111111" spreadType="center" to="6">
		<lane allow="moped bicycle pedestrian custom1 trailer evehicle rail_urban ship private vip custom2 authority delivery rail_electric taxi tram army hov coach motorcycle passenger rail emergency" index="0" length="16.407319351256643" shape="34.26455,-5.60885 32.411950000000004,-4.3247 31.2619,-3.108 30.3342,-1.479 29.756749999999997,0.3297 29.69885,1.70015 30.0613,3.8263999999999996 30.912399999999998,6.20165 31.961399999999998,8.6395" speed="36.11111111111111" width="2.9347200002725966"/>
	</edge>
	<edge from="9" function="normal" id="3718" length="22.831237741532025" numLanes="1" priority="1" speed="36.11111111111111" spreadType="center" to="25">
		<lane allow="moped bicycle pedestrian custom1 trailer evehicle rail_urban ship private vip custom2 authority delivery rail_electric taxi tram army hov coach motorcycle passenger rail emergency" index="0" length="22.831237741532025" shape="56.6285,58.3939 59.2502,61.765600000000006 61.314949999999996,63.6808 63.90875,64.8545 68.53705,65.2584 76.787,65.39565" speed="36.11111111111111" width="3.1576335062828313"/>
	</edge>
	<edge from="25" function="normal" id="3500" length="9.586145870473697" numLanes="1" priority="1" speed="36.11111111111111" spreadType="center" to="26">
		<lane allow="moped bicycle pedestrian custom1 trailer evehicle rail_urban ship private truck vip custom2 authority delivery rail_electric taxi tram army hov coach motorcycle passenger bus rail emergency" index="0" length="9.586145870473697" shape="76.787,65.39565 86.3678,65.07555" speed="36.11111111111111" width="5.358070392408074"/>
	</edge>
	<edge from="27" function="normal" id="3555" length="8.747302513489512" numLanes="4" priority="1" speed="36.11111111111111" spreadType="center" to="28">
		<lane allow="moped bicycle pedestrian custom1 trailer evehicle rail_urban ship private truck vip custom2 authority delivery rail_electric taxi tram army hov coach motorcycle passenger bus rail emergency" index="0" length="8.747302513489512" shape="-16.5637,-97.4717 -12.5875,-89.68035" speed="36.11111111111111" width="3.5111446353005746"/>
		<lane allow="moped bicycle pedestrian custom1 trailer evehicle rail_urban ship private truck vip custom2 authority delivery rail_electric taxi tram army hov coach motorcycle passenger bus rail emergency" index="1" length="8.747302513489512" shape="-19.5075,-95.9605 -15.4771,-88.07855" speed="36.11111111111111" width="2.9942633818687394"/>
		<lane allow="moped bicycle pedestrian custom1 trailer evehicle rail_urban ship private truck vip custom2 authority delivery rail_electric taxi tram army hov coach motorcycle passenger bus rail emergency" index="2" length="8.747302513489512" shape="-22.207,-94.57475 -18.1188,-86.5414" speed="36.11111111111111" width="3.012211639310892"/>
		<lane allow="moped bicycle pedestrian custom1 trailer evehicle rail_urban ship private truck vip custom2 authority delivery rail_electric taxi tram army hov coach motorcycle passenger bus rail emergency" index="3" length="8.747302513489512" shape="-24.984949999999998,-93.14865 -20.804,-85.103" speed="36.11111111111111" width="3.0805742451692346"/>
	</edge>
	<edge from="28" function="normal" id="3559" length="17.69293538209547" numLanes="5" priority="1" speed="36.11111111111111" spreadType="center" to="29">
		<lane allow="moped bicycle pedestrian custom1 trailer evehicle rail_urban ship private truck vip custom2 authority delivery rail_electric taxi tram army hov coach motorcycle passenger bus rail emergency" index="0" length="17.69293538209547" shape="-12.5875,-89.68035 -9.2418,-82.7127 -4.73275,-73.63390000000001" speed="36.11111111111111" width="3.5111446353005746"/>
		<lane allow="moped bicycle pedestrian custom1 trailer evehicle rail_urban ship private truck vip custom2 authority delivery rail_electric taxi tram army hov coach motorcycle passenger bus rail emergency" index="1" length="17.69293538209547" shape="-15.4771,-88.07855 -12.0823,-81.1534 -7.522,-72.04285" speed="36.11111111111111" width="2.8911201583469373"/>
		<lane allow="moped bicycle pedestrian custom1 trailer evehicle rail_urban ship private truck vip custom2 authority delivery rail_electric taxi tram army hov coach motorcycle passenger bus rail emergency" index="2" length="17.69293538209547" shape="-18.1188,-86.5414 -14.772300000000001,-79.75405 -10.212,-70.64355" speed="36.11111111111111" width="3.012211639310892"/>
		<lane allow="moped bicycle pedestrian custom1 trailer evehicle rail_urban ship private truck vip custom2 authority delivery rail_electric taxi tram army hov coach motorcycle passenger bus rail emergency" index="3" length="17.69293538209547" shape="-20.804,-85.103 -17.443150000000003,-78.39285000000001 -12.8828,-69.28229999999999" speed="36.11111111111111" width="2.8198292501497306"/>
		<lane allow="moped bicycle pedestrian custom1 trailer evehicle rail_urban ship private truck vip custom2 authority delivery rail_electric taxi tram army hov coach motorcycle passenger rail emergency" index="4" length="17.69293538209547" shape="-20.804,-85.103 -18.9714,-77.36785 -15.49055,-67.82955" speed="36.11111111111111" width="2.9068515975192115"/>
	</edge>
	<edge from="29" function="normal" id="3568" length="47.08668512312135" numLanes="5" priority="1" speed="36.11111111111111" spreadType="center" to="30">
		<lane allow="moped bicycle pedestrian custom1 trailer evehicle rail_urban ship private truck vip custom2 authority delivery rail_electric taxi tram army hov coach motorcycle passenger bus rail emergency" index="0" length="47.08668512312135" shape="-4.73275,-73.63390000000001 -0.5337500000000001,-65.1789 3.7239,-56.60435 8.16235,-47.668350000000004 12.46095,-39.20740000000001 16.64645,-31.558300000000003" speed="36.11111111111111" width="3.3461488699697757"/>
		<lane allow="moped bicycle pedestrian custom1 trailer evehicle rail_urban ship private truck vip custom2 authority delivery rail_electric taxi tram army hov coach motorcycle passenger bus rail emergency" index="1" length="47.08668512312135" shape="-7.522,-72.04285 -3.3019999999999996,-63.6121 0.8902999999999999,-55.2367 5.4286,-46.17 9.64665,-37.7431 13.51815,-29.9185" speed="36.11111111111111" width="2.891084628647181"/>