<routes>
	<vehicle depart="0.1" departLane="0" departPos="22.957611417568984" departSpeed="0.76602552" id="313" type="passenger">
		<route edges=":49_6 44590"/>
	</vehicle>
	<vehicle depart="0.1" departLane="0" departPos="7.338736026514066" departSpeed="0.57277038" id="316" type="passenger">
		<route edges=":49_6 44590"/>
	</vehicle>
	<vehicle depart="0.1" departLane="0" departPos="26.613234412827623" departSpeed="0.98611666" id="317" type="passenger">
		<route edges="44591 44380"/>
	</vehicle>
	<vehicle depart="0.1" departLane="0" departPos="45.86977142403717" departSpeed="0.52324132" id="318" type="passenger">
		<route edges="44381 44590"/>
	</vehicle>
	<vehicle depart="0.1" departLane="0" departPos="30.72369147810006" departSpeed="1.065976" id="320" type="passenger">
		<route edges="44381 44590"/>
	</vehicle>
	<vehicle depart="0.1" departLane="0" departPos="22.209176913130367" departSpeed="0.95462995" id="331" type="passenger">
		<route edges="44381 44590"/>
	</vehicle>
	<vehicle depart="0.1" departLane="0" departPos="13.080459874936228" departSpeed="1.2320099" id="339" type="passenger">
		<route edges="44381 44590"/>
	</vehicle>
	<vehicle depart="0.1" departLane="0" departPos="30.426520307043173" departSpeed="9.081016" id="353" type="passenger">
		<route edges="44380 44430"/>
	</vehicle>
	<vehicle depart="0.1" departLane="0" departPos="28.097129788177302" departSpeed="10.265059" id="354" type="passenger">
		<route edges=":49_1 44380 44430"/>
	</vehicle>
	<vehicle depart="0.1" departLane="0" departPos="2.5" departSpeed="10.413676" id="359" type="passenger">
		<route edges=":49_1 44380"/>
	</vehicle>
</routes>
