<!-- generated on 2020-12-18 15:54:43.879147 by ipykernel_launcher.py v1_2_0+5214-53edc58fcd
-->
<tlLogics/>
