<?xml version="1.0" encoding="UTF-8"?>

<!-- generated on Fri Dec 18 15:54:43 2020 by Eclipse SUMO netconvert Version 1.8.0
<configuration xmlns:xsi="http://www.w3.org/2001/XMLSchema-instance" xsi:noNamespaceSchemaLocation="http://sumo.dlr.de/xsd/netconvertConfiguration.xsd">

    <input>
        <node-files value="./converted_scenarios/NGSIM/US101/USA_US101-11_3_I-1-1/nodes.net.xml"/>
        <edge-files value="./converted_scenarios/NGSIM/US101/USA_US101-11_3_I-1-1/edges.net.xml"/>
        <connection-files value="./converted_scenarios/NGSIM/US101/USA_US101-11_3_I-1-1/_connections.net.xml"/>
        <tllogic-files value="./converted_scenarios/NGSIM/US101/USA_US101-11_3_I-1-1/_tll.net.xml"/>
    </input>

    <output>
        <output-file value="./converted_scenarios/NGSIM/US101/USA_US101-11_3_I-1-1/USA_US101-11_3_I-1-1.net.xml"/>
    </output>

    <processing>
        <plain.extend-edge-shape value="true"/>
        <geometry.remove.keep-edges.explicit value="true"/>
        <geometry.avoid-overlap value="true"/>
        <offset.disable-normalization value="true"/>
    </processing>

    <junctions>
        <no-turnarounds value="true"/>
        <junctions.internal-link-detail value="20"/>
    </junctions>

    <report>
        <aggregate-warnings value="5"/>
    </report>

    <random_number>
        <seed value="1234"/>
    </random_number>

</configuration>
-->

<net version="1.6" junctionCornerDetail="5" junctionLinkDetail="20" limitTurnSpeed="5.50" xmlns:xsi="http://www.w3.org/2001/XMLSchema-instance" xsi:noNamespaceSchemaLocation="http://sumo.dlr.de/xsd/net_file.xsd">

    <location netOffset="0.00,0.00" convBoundary="-47.37,-93.90,113.67,42.38" origBoundary="-51.84,-99.55,117.60,47.47" projParameter="!"/>

    <edge id="14" from="1" to="2" priority="1" spreadType="center" length="210.38">
        <lane id="14_0" index="0" disallow="bus rail_fast" speed="36.11" length="210.38" width="3.61" customShape="1" shape="-51.89,37.29 -47.28,33.28 -44.29,30.69 -41.13,27.94 -36.50,23.89 -33.52,21.29 -25.87,14.58 -22.90,11.98 -20.69,10.06 -15.12,5.18 -12.13,2.56 -3.90,-4.75 -0.95,-7.34 0.96,-9.01 6.77,-14.05 9.77,-16.66 17.64,-23.48 19.23,-24.86 20.66,-26.10 28.77,-33.20 31.77,-35.80 35.82,-39.32 39.58,-42.62 42.55,-45.22 45.58,-47.86 50.87,-52.43 53.87,-55.02 55.27,-56.20 59.23,-59.45 61.91,-61.68 64.93,-64.24 72.89,-70.71 72.99,-70.79 74.22,-71.84 76.00,-73.34 84.38,-80.09 85.81,-81.24 87.58,-82.62 96.57,-89.35 97.32,-89.93 99.65,-91.78 107.05,-97.50 109.36,-99.33"/>
        <lane id="14_1" index="1" disallow="bus truck rail_fast" speed="36.11" length="210.38" width="3.12" customShape="1" shape="-49.56,39.92 -44.99,35.90 -44.89,35.82 -42.01,33.31 -41.91,33.22 -34.22,26.66 -32.98,25.61 -31.13,24.00 -29.95,22.96 -23.51,17.22 -22.51,16.34 -20.56,14.63 -19.52,13.73 -12.76,7.74 -11.38,6.51 -9.81,5.15 -8.44,3.94 -1.61,-1.99 -0.29,-3.13 1.46,-4.65 2.74,-5.75 9.17,-11.33 10.74,-12.70 12.16,-13.93 13.74,-15.30 20.04,-20.76 22.07,-22.53 23.03,-23.36 25.00,-25.10 31.10,-30.54 32.79,-32.03 34.07,-33.14 35.76,-34.61 41.88,-40.01 43.84,-41.73 44.85,-42.61 46.83,-44.33 53.14,-49.81 54.72,-51.19 56.13,-52.41 57.76,-53.79 64.09,-58.89 66.59,-60.97 66.70,-61.07 67.23,-61.52 69.82,-63.66 75.23,-68.00 78.17,-70.46 78.28,-70.54 86.70,-77.29 89.35,-79.44 89.78,-79.78 92.53,-81.92 98.67,-86.46 100.79,-88.10 100.92,-88.20 101.87,-88.96 104.06,-90.69 109.23,-94.64 111.60,-96.51"/>
        <lane id="14_2" index="2" disallow="bus rail_fast" speed="36.11" length="210.38" width="3.08" customShape="1" shape="-47.35,42.40 -47.05,42.13 -44.06,39.52 -42.74,38.36 -39.72,35.73 -35.58,32.21 -32.57,29.65 -30.74,28.10 -27.76,25.54 -24.58,22.75 -21.60,20.10 -20.26,18.90 -17.29,16.28 -13.38,12.75 -10.45,10.15 -9.22,9.04 -6.21,6.40 -2.20,2.92 0.81,0.34 1.94,-0.63 4.93,-3.24 9.13,-6.91 12.12,-9.52 12.92,-10.21 15.90,-12.82 19.87,-16.29 22.86,-18.89 24.22,-20.07 27.20,-22.68 30.80,-25.87 33.76,-28.48 34.93,-29.51 37.95,-32.14 41.96,-35.65 44.94,-38.26 45.97,-39.16 48.99,-41.76 53.35,-45.51 56.37,-48.13 56.93,-48.62 59.93,-51.23 64.73,-55.20 67.78,-57.72 68.76,-58.48 71.70,-60.87 71.84,-60.98 76.01,-64.25 79.05,-66.79 87.55,-73.56 90.58,-76.10 91.39,-76.73 94.49,-79.17 94.60,-79.25 99.12,-82.64 102.26,-85.06 102.96,-85.58 105.98,-87.91 106.07,-87.98 111.23,-91.86 113.73,-93.82"/>
        <lane id="14_3" index="3" disallow="bus truck rail_fast" speed="36.11" length="210.38" width="3.23" customShape="1" shape="-45.18,44.89 -44.82,44.58 -44.61,44.39 -41.85,41.99 -41.62,41.79 -33.47,34.81 -30.45,32.19 -22.53,25.30 -22.33,25.13 -19.55,22.72 -19.32,22.52 -11.45,15.50 -11.16,15.26 -8.43,12.88 -8.16,12.64 -0.32,5.79 -0.01,5.52 2.72,3.15 3.01,2.90 10.69,-3.82 11.33,-4.37 13.70,-6.43 14.34,-7.00 22.04,-13.80 25.03,-16.40 33.00,-23.34 36.03,-25.97 43.97,-32.96 44.19,-33.15 46.96,-35.56 47.15,-35.72 55.11,-42.51 55.63,-42.95 58.09,-45.09 58.58,-45.51 66.50,-52.31 66.86,-52.62 69.51,-54.92 69.62,-55.02 69.82,-55.17 78.13,-61.59 81.18,-64.24 89.66,-70.86 92.57,-73.31 92.75,-73.45 101.17,-79.92 101.29,-80.02 104.28,-82.44 104.50,-82.60 113.04,-89.03 113.30,-89.22 115.78,-91.24"/>
        <lane id="14_4" index="4" disallow="bus truck rail_fast" speed="36.11" length="210.38" width="3.45" customShape="1" shape="-42.94,47.47 -42.36,46.95 -41.98,46.63 -39.39,44.37 -38.98,44.01 -31.19,37.42 -30.81,37.10 -28.18,34.81 -27.82,34.50 -20.32,27.84 -19.94,27.51 -17.34,25.25 -16.99,24.95 -9.19,18.02 -8.82,17.69 -6.22,15.43 -5.82,15.09 1.99,8.36 2.37,8.02 4.99,5.75 5.37,5.42 12.98,-1.21 13.37,-1.55 15.97,-3.81 16.31,-4.11 24.31,-11.24 24.68,-11.56 27.28,-13.82 27.68,-14.17 35.32,-20.76 35.71,-21.09 38.32,-23.36 38.67,-23.66 46.23,-30.39 46.61,-30.72 49.21,-32.98 49.61,-33.32 57.32,-39.92 57.70,-40.25 60.33,-42.52 60.73,-42.87 68.77,-49.71 69.15,-50.03 71.78,-52.32 72.24,-52.70 80.32,-59.03 80.65,-59.30 80.78,-59.42 83.38,-61.67 83.86,-62.06 91.79,-68.21 92.26,-68.58 94.90,-70.72 95.44,-71.14 103.50,-77.36 103.97,-77.73 106.61,-79.87 107.15,-80.30 115.06,-86.34 115.53,-86.70 117.87,-88.60"/>
    </edge>

    <junction id="1" type="dead_end" x="-47.37" y="42.38" incLanes="" intLanes="" shape="-41.74,48.71 -53.09,35.94"/>
    <junction id="2" type="dead_end" x="113.67" y="-93.90" incLanes="14_0 14_1 14_2 14_3 14_4" intLanes="" shape="108.24,-100.75 118.94,-87.25"/>

</net>
