<routes>
	<vehicle depart="0.1" departLane="0" departPos="14.842377937638156" departSpeed="2.2881097" id="315" type="passenger">
		<route edges=":72_0 4536"/>
	</vehicle>
	<vehicle depart="0.1" departLane="0" departPos="22.553477444241178" departSpeed="2.3484454" id="322" type="passenger">
		<route edges="4753 4536"/>
	</vehicle>
	<vehicle depart="0.1" departLane="0" departPos="69.01095403594769" departSpeed="0.0" id="352" type="passenger">
		<route edges="4539 4536"/>
	</vehicle>
	<vehicle depart="0.1" departLane="0" departPos="61.115287725604446" departSpeed="0.43593879" id="358" type="passenger">
		<route edges="4539 4536"/>
	</vehicle>
	<vehicle depart="0.1" departLane="0" departPos="5.121369840568258" departSpeed="2.1250625" id="341" type="motorcycle">
		<route edges="4753 4540"/>
	</vehicle>
	<vehicle depart="0.1" departLane="0" departPos="15.342878329081588" departSpeed="2.5654653" id="345" type="motorcycle">
		<route edges="4536 4658"/>
	</vehicle>
</routes>
