<routes>
	<vehicle depart="0.1" departLane="0" departPos="10.64275712149238" departSpeed="0.038593557" id="39" type="bicycle">
		<route edges=":53_1 21230"/>
	</vehicle>
	<vehicle depart="0.1" departLane="0" departPos="30.36416765154393" departSpeed="0.072563948" id="35" type="passenger">
		<route edges=":58_5 21186 21189"/>
	</vehicle>
	<vehicle depart="0.1" departLane="0" departPos="35.87450107597599" departSpeed="0.73440353" id="312" type="passenger">
		<route edges="21186 21189"/>
	</vehicle>
	<vehicle depart="0.1" departLane="0" departPos="18.468996209742645" departSpeed="0.0" id="319" type="passenger">
		<route edges="21233 21230"/>
	</vehicle>
	<vehicle depart="0.1" departLane="0" departPos="16.541741713000384" departSpeed="0.82687394" id="334" type="passenger">
		<route edges="21186 21189"/>
	</vehicle>
	<vehicle depart="0.1" departLane="0" departPos="14.58793937581218" departSpeed="6.1833843" id="366" type="passenger">
		<route edges="21185 21309"/>
	</vehicle>
	<vehicle depart="0.1" departLane="0" departPos="32.450158460148344" departSpeed="8.1596164" id="370" type="passenger">
		<route edges=":53_4 21185 21309"/>
	</vehicle>
	<vehicle depart="0.1" departLane="0" departPos="17.93779944434092" departSpeed="9.2970795" id="372" type="passenger">
		<route edges=":53_4 21185 21309"/>
	</vehicle>
	<vehicle depart="0.1" departLane="0" departPos="65.72748790475322" departSpeed="8.6956041" id="374" type="passenger">
		<route edges="21188 21185 21309"/>
	</vehicle>
	<vehicle depart="0.1" departLane="0" departPos="54.04237251623745" departSpeed="9.2080662" id="375" type="motorcycle">
		<route edges="21188 21185 21309"/>
	</vehicle>
</routes>
