<routes>
	<vehicle depart="0.1" departLane="1" departPos="85.26094573867877" departSpeed="15.4137" id="415" type="passenger">
		<route edges="24"/>
	</vehicle>
	<vehicle depart="0.1" departLane="3" departPos="77.38545278486615" departSpeed="17.8156" id="418" type="passenger">
		<route edges="24"/>
	</vehicle>
	<vehicle depart="0.1" departLane="4" departPos="55.64727661695609" departSpeed="18.288" id="422" type="passenger">
		<route edges="24"/>
	</vehicle>
	<vehicle depart="0.1" departLane="3" departPos="52.3308065100076" departSpeed="16.7731" id="423" type="passenger">
		<route edges="24"/>
	</vehicle>
	<vehicle depart="0.1" departLane="1" departPos="64.38681544060796" departSpeed="14.8438" id="424" type="passenger">
		<route edges="24"/>
	</vehicle>
	<vehicle depart="0.1" departLane="3" departPos="22.310930079233547" departSpeed="16.764" id="426" type="passenger">
		<route edges="24"/>
	</vehicle>
	<vehicle depart="0.1" departLane="4" departPos="16.637730988341175" departSpeed="15.24" id="427" type="passenger">
		<route edges="24"/>
	</vehicle>
	<vehicle depart="0.1" departLane="3" departPos="7.219373834705712" departSpeed="15.24" id="431" type="passenger">
		<route edges="24"/>
	</vehicle>
	<vehicle depart="0.1" departLane="0" departPos="47.69952254596778" departSpeed="18.2971" id="433" type="passenger">
		<route edges="24"/>
	</vehicle>
	<vehicle depart="0.1" departLane="0" departPos="26.330240542092607" departSpeed="15.621" id="434" type="passenger">
		<route edges="24"/>
	</vehicle>
	<vehicle depart="0.1" departLane="1" departPos="19.320896369345874" departSpeed="15.24" id="435" type="passenger">
		<route edges="24"/>
	</vehicle>
	<vehicle depart="0.1" departLane="2" departPos="32.964257228472576" departSpeed="17.4986" id="436" type="passenger">
		<route edges="24"/>
	</vehicle>
	<vehicle depart="0.1" departLane="2" departPos="111.35792445149562" departSpeed="15.2339" id="438" type="passenger">
		<route edges="23 24"/>
	</vehicle>
	<vehicle depart="0.1" departLane="3" departPos="127.21753307457944" departSpeed="16.3129" id="439" type="passenger">
		<route edges="23 24"/>
	</vehicle>
	<vehicle depart="0.1" departLane="4" departPos="125.299539027576" departSpeed="14.8377" id="440" type="passenger">
		<route edges="23 24"/>
	</vehicle>
	<vehicle depart="0.1" departLane="1" departPos="140.6656791642567" departSpeed="16.3434" id="441" type="passenger">
		<route edges="23 24 24"/>
	</vehicle>
	<vehicle depart="0.1" departLane="5" departPos="116.40976322335067" departSpeed="14.033" id="442" type="passenger">
		<route edges="23 24"/>
	</vehicle>
	<vehicle depart="0.1" departLane="3" departPos="105.06386272026485" departSpeed="14.5938" id="443" type="passenger">
		<route edges="23 24"/>
	</vehicle>
	<vehicle depart="0.1" departLane="1" departPos="105.85909790583041" departSpeed="15.24" id="445" type="passenger">
		<route edges="23 24"/>
	</vehicle>
	<vehicle depart="0.1" departLane="4" departPos="94.2940870387731" departSpeed="15.2857" id="446" type="passenger">
		<route edges="23 24"/>
	</vehicle>
	<vehicle depart="0.1" departLane="3" departPos="63.248503939226474" departSpeed="14.1762" id="447" type="passenger">
		<route edges="23 24"/>
	</vehicle>
	<vehicle depart="0.1" departLane="1" departPos="68.22880497381715" departSpeed="15.24" id="449" type="passenger">
		<route edges="23 24"/>
	</vehicle>
	<vehicle depart="0.1" departLane="5" departPos="64.1117644732877" departSpeed="15.1211" id="451" type="passenger">
		<route edges="23 24"/>
	</vehicle>
	<vehicle depart="0.1" departLane="2" departPos="62.070804542197116" departSpeed="20.577" id="452" type="passenger">
		<route edges="23 24 24"/>
	</vehicle>
	<vehicle depart="0.1" departLane="4" departPos="52.849527056320895" departSpeed="16.6604" id="456" type="passenger">
		<route edges="23 24"/>
	</vehicle>
	<vehicle depart="0.1" departLane="3" departPos="34.846713145824566" departSpeed="13.716" id="457" type="passenger">
		<route edges="23 24"/>
	</vehicle>
	<vehicle depart="0.1" departLane="5" departPos="24.070955686358122" departSpeed="12.192" id="458" type="passenger">
		<route edges="23 24"/>
	</vehicle>
	<vehicle depart="0.1" departLane="2" departPos="15.774282132713097" departSpeed="12.1402" id="462" type="passenger">
		<route edges="23 24"/>
	</vehicle>
	<vehicle depart="0.1" departLane="2" departPos="0" departSpeed="12.1829" id="464" type="passenger">
		<route edges="23 24"/>
	</vehicle>
	<vehicle depart="0.1" departLane="0" departPos="10.089608575137314" departSpeed="16.764" id="465" type="passenger">
		<route edges="23 22"/>
	</vehicle>
	<vehicle depart="0.1" departLane="3" departPos="11.83344101256547" departSpeed="15.24" id="467" type="passenger">
		<route edges="23 24"/>
	</vehicle>
	<vehicle depart="0.1" departLane="5" departPos="0" departSpeed="12.192" id="468" type="passenger">
		<route edges="23 24"/>
	</vehicle>
	<vehicle depart="0.1" departLane="1" departPos="19.41041450050198" departSpeed="14.9901" id="469" type="passenger">
		<route edges="23 24"/>
	</vehicle>
</routes>
