<routes>
	<vehicle depart="0.1" departLane="0" departPos="53.28858439169915" departSpeed="1.9605722" id="317" type="passenger">
		<route edges="58238 58394"/>
	</vehicle>
	<vehicle depart="0.1" departLane="0" departPos="13.296288245158092" departSpeed="9.66731" id="326" type="passenger">
		<route edges=":65_0 58239"/>
	</vehicle>
	<vehicle depart="0.1" departLane="0" departPos="63.551359116201844" departSpeed="0.95929686" id="327" type="passenger">
		<route edges="58238 58394"/>
	</vehicle>
	<vehicle depart="0.1" departLane="0" departPos="8.662167687400942" departSpeed="8.7809854" id="328" type="passenger">
		<route edges="58392 58331"/>
	</vehicle>
	<vehicle depart="0.1" departLane="0" departPos="2.5" departSpeed="0.33887638" id="329" type="passenger">
		<route edges=":67_4 58397"/>
	</vehicle>
	<vehicle depart="0.1" departLane="0" departPos="52.77500696442109" departSpeed="0.41770597" id="330" type="passenger">
		<route edges="58391 58397"/>
	</vehicle>
	<vehicle depart="0.1" departLane="0" departPos="10.221407055484166" departSpeed="0.70797268" id="337" type="passenger">
		<route edges=":67_2 58401"/>
	</vehicle>
	<vehicle depart="0.1" departLane="0" departPos="8.817598460600284" departSpeed="11.807951" id="339" type="passenger">
		<route edges=":67_1 58397 58394"/>
	</vehicle>
	<vehicle depart="0.1" departLane="0" departPos="10.44046901437386" departSpeed="2.3265556" id="343" type="passenger">
		<route edges=":65_2 58398"/>
	</vehicle>
	<vehicle depart="0.1" departLane="0" departPos="12.64650489077264" departSpeed="13.120909" id="345" type="passenger">
		<route edges=":63_0 58400"/>
	</vehicle>
</routes>
