<routes>
	<vehicle depart="0.1" departLane="0" departPos="27.06403080372269" departSpeed="1.3574324" id="314" type="bicycle">
		<route edges="21002 21021 22812"/>
	</vehicle>
	<vehicle depart="0.1" departLane="0" departPos="5.938490226623623" departSpeed="0.91228627" id="319" type="bicycle">
		<route edges="21002 21021"/>
	</vehicle>
	<vehicle depart="0.1" departLane="0" departPos="10.456597115844232" departSpeed="0.10613763" id="33" type="passenger">
		<route edges="21021 22812"/>
	</vehicle>
	<vehicle depart="0.1" departLane="0" departPos="59.44183664795101" departSpeed="0.0" id="36" type="passenger">
		<route edges="21217 23288"/>
	</vehicle>
	<vehicle depart="0.1" departLane="0" departPos="10.818189960600623" departSpeed="4.4722703" id="39" type="passenger">
		<route edges=":25_1 21218"/>
	</vehicle>
	<vehicle depart="0.1" departLane="0" departPos="7.46058592833223" departSpeed="0.6650967" id="315" type="passenger">
		<route edges="21002 21021"/>
	</vehicle>
	<vehicle depart="0.1" departLane="0" departPos="10.805802915542603" departSpeed="3.406931" id="328" type="passenger">
		<route edges="21218"/>
	</vehicle>
	<vehicle depart="0.1" departLane="0" departPos="24.62172669947654" departSpeed="5.1840491" id="330" type="passenger">
		<route edges="22707 20982 20979 21218"/>
	</vehicle>
	<vehicle depart="0.1" departLane="0" departPos="26.92398456911648" departSpeed="0.90898876" id="331" type="passenger">
		<route edges="21002 21021 22812"/>
	</vehicle>
	<vehicle depart="0.1" departLane="0" departPos="68.84529436892896" departSpeed="0.0" id="30" type="truck">
		<route edges="21217 23288"/>
	</vehicle>
</routes>
