<!-- generated on Tue Feb  9 22:03:47 2021 by Eclipse SUMO netconvert Version 1.8.0
<configuration xmlns:xsi="http://www.w3.org/2001/XMLSchema-instance" xsi:noNamespaceSchemaLocation="http://sumo.dlr.de/xsd/netconvertConfiguration.xsd">

    <input>
        <node-files value="./converted_scenarios/scenario-factory/BEL_Zaventem-3_1_I-1-1/BEL_Zaventem-3_1_I-1-1.nod.xml"/>
        <edge-files value="./converted_scenarios/scenario-factory/BEL_Zaventem-3_1_I-1-1/BEL_Zaventem-3_1_I-1-1.edg.xml"/>
        <connection-files value="./converted_scenarios/scenario-factory/BEL_Zaventem-3_1_I-1-1/BEL_Zaventem-3_1_I-1-1.con.xml"/>
        <tllogic-files value="./converted_scenarios/scenario-factory/BEL_Zaventem-3_1_I-1-1/BEL_Zaventem-3_1_I-1-1.tll.xml"/>
        <type-files value="/home/zen/commonroad-interactive-benchmarks/install/commonroad-map-tool/crmapconverter/sumo_map/templates/DEU.typ.xml"/>
    </input>

    <output>
        <output-file value="./converted_scenarios/scenario-factory/BEL_Zaventem-3_1_I-1-1/BEL_Zaventem-3_1_I-1-1.net.xml"/>
    </output>

    <processing>
        <geometry.remove.keep-edges.explicit value="true"/>
        <geometry.avoid-overlap value="true"/>
        <offset.disable-normalization value="true"/>
    </processing>

    <junctions>
        <no-turnarounds value="true"/>
        <junctions.internal-link-detail value="20"/>
    </junctions>

    <report>
        <aggregate-warnings value="5"/>
    </report>

    <random_number>
        <seed value="1234"/>
    </random_number>

</configuration>
--><net xmlns:xsi="http://www.w3.org/2001/XMLSchema-instance" version="1.6" junctionCornerDetail="5" junctionLinkDetail="20" limitTurnSpeed="5.50" xsi:noNamespaceSchemaLocation="http://sumo.dlr.de/xsd/net_file.xsd">

    <location netOffset="0.00,0.00" convBoundary="-675.45,548.55,-540.32,640.23" origBoundary="-675.45,548.55,-540.32,640.23" projParameter="!"/>

    <type id="highway.bridleway" priority="1" speed="2.78" allow="pedestrian" oneway="1" width="2.00"/>
    <type id="highway.bus_guideway" priority="1" speed="27.78" allow="bus" oneway="1"/>
    <type id="highway.cycleway" priority="1" speed="8.33" allow="bicycle" oneway="0" width="1.00"/>
    <type id="highway.footway" priority="1" speed="2.78" allow="pedestrian" oneway="1" width="2.00"/>
    <type id="highway.ford" priority="1" speed="2.78" allow="army" oneway="0"/>
    <type id="highway.living_street" priority="2" speed="2.78" disallow="tram rail_urban rail rail_electric rail_fast ship" oneway="0"/>
    <type id="highway.motorway" priority="14" speed="39.44" allow="private emergency authority army vip passenger hov taxi bus coach delivery truck trailer motorcycle evehicle custom1 custom2" oneway="1"/>
    <type id="highway.motorway_link" priority="9" speed="22.22" allow="private emergency authority army vip passenger hov taxi bus coach delivery truck trailer motorcycle evehicle custom1 custom2" oneway="1"/>
    <type id="highway.path" priority="1" speed="2.78" allow="pedestrian bicycle" oneway="0" width="2.00"/>
    <type id="highway.pedestrian" priority="1" speed="2.78" allow="pedestrian" oneway="1" width="2.00"/>
    <type id="highway.primary" priority="12" speed="27.78" disallow="pedestrian tram rail_urban rail rail_electric rail_fast ship" oneway="0"/>
    <type id="highway.primary_link" priority="7" speed="22.22" disallow="pedestrian tram rail_urban rail rail_electric rail_fast ship" oneway="0"/>
    <type id="highway.raceway" priority="15" speed="83.33" allow="vip" oneway="0"/>
    <type id="highway.residential" priority="3" speed="13.89" disallow="pedestrian tram rail_urban rail rail_electric rail_fast ship" oneway="0"/>
    <type id="highway.secondary" priority="11" speed="27.78" disallow="pedestrian tram rail_urban rail rail_electric rail_fast ship" oneway="0"/>
    <type id="highway.secondary_link" priority="6" speed="22.22" disallow="pedestrian tram rail_urban rail rail_electric rail_fast ship" oneway="0"/>
    <type id="highway.service" priority="1" speed="5.56" allow="pedestrian delivery bicycle" oneway="0"/>
    <type id="highway.stairs" priority="1" speed="1.39" allow="pedestrian" oneway="1" width="2.00"/>
    <type id="highway.step" priority="1" speed="1.39" allow="pedestrian" oneway="1" width="2.00"/>
    <type id="highway.steps" priority="1" speed="1.39" allow="pedestrian" oneway="1" width="2.00"/>
    <type id="highway.tertiary" priority="10" speed="22.22" disallow="pedestrian tram rail_urban rail rail_electric rail_fast ship" oneway="0"/>
    <type id="highway.tertiary_link" priority="5" speed="22.22" disallow="pedestrian tram rail_urban rail rail_electric rail_fast ship" oneway="0"/>
    <type id="highway.track" priority="1" speed="5.56" allow="pedestrian motorcycle moped bicycle" oneway="0"/>
    <type id="highway.trunk" priority="13" speed="27.78" disallow="pedestrian bicycle tram rail_urban rail rail_electric rail_fast ship" oneway="0"/>
    <type id="highway.trunk_link" priority="8" speed="22.22" disallow="pedestrian bicycle tram rail_urban rail rail_electric rail_fast ship" oneway="0"/>
    <type id="highway.unclassified" priority="4" speed="13.89" disallow="pedestrian tram rail_urban rail rail_electric rail_fast ship" oneway="0"/>
    <type id="highway.unsurfaced" priority="1" speed="8.33" disallow="tram rail_urban rail rail_electric rail_fast ship" oneway="0"/>
    <type id="railway.highspeed" priority="21" speed="69.44" allow="rail_fast" oneway="1"/>
    <type id="railway.light_rail" priority="19" speed="27.78" allow="rail_urban" oneway="1"/>
    <type id="railway.preserved" priority="16" speed="27.78" allow="rail" oneway="1"/>
    <type id="railway.rail" priority="20" speed="44.44" allow="rail" oneway="1"/>
    <type id="railway.subway" priority="18" speed="27.78" allow="rail_urban" oneway="1"/>
    <type id="railway.tram" priority="17" speed="13.89" allow="tram" oneway="1"/>

    <edge id=":10_0" function="internal">
        <lane id=":10_0_0" index="0" disallow="pedestrian tram rail_urban rail rail_electric rail_fast ship" speed="36.11" length="2.95" width="3.50" shape="-590.84,574.50 -589.38,571.94"/>
    </edge>
    <edge id=":16_0" function="internal">
        <lane id=":16_0_0" index="0" disallow="pedestrian tram rail_urban rail rail_electric rail_fast ship" speed="36.11" length="0.28" width="3.50" shape="-567.09,584.87 -567.11,584.87 -567.13,584.87 -567.14,584.87 -567.16,584.86 -567.17,584.86 -567.18,584.86 -567.20,584.86 -567.21,584.86 -567.22,584.86 -567.23,584.86 -567.24,584.85 -567.25,584.85 -567.26,584.85 -567.27,584.85 -567.29,584.85 -567.30,584.85 -567.32,584.85 -567.34,584.85 -567.36,584.85"/>
    </edge>
    <edge id=":19_0" function="internal">
        <lane id=":19_0_0" index="0" disallow="pedestrian tram rail_urban rail rail_electric rail_fast ship" speed="36.11" length="3.00" width="3.50" shape="-583.11,586.40 -586.09,586.77"/>
    </edge>
    <edge id=":20_0" function="internal">
        <lane id=":20_0_0" index="0" disallow="pedestrian tram rail_urban rail rail_electric rail_fast ship" speed="36.11" length="3.00" width="3.43" shape="-602.54,600.62 -602.05,597.66"/>
    </edge>
    <edge id=":25_0" function="internal">
        <lane id=":25_0_0" index="0" disallow="pedestrian tram rail_urban rail rail_electric rail_fast ship" speed="9.38" length="15.82" width="3.48" shape="-588.64,587.10 -595.26,587.16 -596.04,587.32 -596.65,587.78 -597.08,588.52 -597.37,589.49 -598.15,595.21"/>
    </edge>
    <edge id=":25_1" function="internal">
        <lane id=":25_1_0" index="0" disallow="pedestrian tram rail_urban rail rail_electric rail_fast ship" speed="36.11" length="18.39" width="3.50" shape="-588.64,587.10 -595.33,587.15 -596.32,587.20 -597.30,587.35 -602.95,588.79 -606.82,589.16"/>
    </edge>
    <edge id=":25_2" function="internal">
        <lane id=":25_2_0" index="0" disallow="pedestrian tram rail_urban rail rail_electric rail_fast ship" speed="13.63" length="11.06" width="3.48" shape="-594.85,585.01 -594.73,585.50 -595.96,587.03 -596.51,587.84 -596.98,588.71 -597.33,589.62 -598.15,595.21"/>
    </edge>
    <edge id=":25_3" function="internal">
        <lane id=":25_3_0" index="0" disallow="pedestrian tram rail_urban rail rail_electric rail_fast ship" speed="12.11" length="14.06" width="3.50" shape="-594.85,585.01 -594.29,584.93 -596.25,586.35 -598.42,587.51 -600.73,588.35 -603.10,588.88 -606.82,589.16"/>
    </edge>
    <edge id=":25_4" function="internal">
        <lane id=":25_4_0" index="0" disallow="pedestrian tram rail_urban rail rail_electric rail_fast ship" speed="12.04" length="17.28" width="3.50" shape="-606.92,585.66 -603.69,585.43 -601.75,585.00 -599.88,584.33 -598.13,583.40 -596.53,582.23 -592.66,577.51"/>
    </edge>
    <edge id=":25_5" function="internal">
        <lane id=":25_5_0" index="0" disallow="pedestrian tram rail_urban rail rail_electric rail_fast ship" speed="36.11" length="12.51" width="3.49" shape="-606.92,585.66 -603.30,585.32 -597.52,583.89 -596.35,583.72 -595.16,583.66 -595.62,583.95"/>
    </edge>
    <edge id=":25_6" function="internal">
        <lane id=":25_6_0" index="0" disallow="pedestrian tram rail_urban rail rail_electric rail_fast ship" speed="8.24" length="16.90" width="3.48" shape="-606.92,585.66 -603.82,585.62 -601.98,585.79 -600.20,586.26 -598.64,587.21 -597.69,588.76 -598.15,595.21"/>
    </edge>
    <edge id=":25_7" function="internal">
        <lane id=":25_7_0" index="0" disallow="pedestrian tram rail_urban rail rail_electric rail_fast ship" speed="6.81" length="11.24" width="3.50" shape="-601.63,594.90 -600.74,590.06 -601.29,589.57 -602.12,589.33 -603.14,589.17 -604.30,589.10 -606.82,589.16"/>
    </edge>
    <edge id=":25_8" function="internal">
        <lane id=":25_8_0" index="0" disallow="pedestrian tram rail_urban rail rail_electric rail_fast ship" speed="23.84" length="20.13" width="3.50" shape="-601.63,594.90 -600.75,588.86 -600.28,587.54 -599.68,586.36 -598.98,585.24 -597.46,583.32 -592.66,577.51"/>
    </edge>
    <edge id=":25_9" function="internal">
        <lane id=":25_9_0" index="0" disallow="pedestrian tram rail_urban rail rail_electric rail_fast ship" speed="8.61" length="14.17" width="3.49" shape="-601.63,594.90 -600.72,588.45 -600.13,586.70 -599.09,585.19 -597.59,584.14 -595.81,583.70 -595.62,583.95"/>
    </edge>
    <edge id=":26_0" function="internal">
        <lane id=":26_0_0" index="0" disallow="pedestrian tram rail_urban rail rail_electric rail_fast ship" speed="36.11" length="9.74" width="3.50" shape="-588.43,577.49 -588.79,578.12 -589.12,578.68 -589.43,579.18 -589.73,579.62 -590.01,580.02 -590.28,580.37 -590.55,580.70 -590.82,581.00 -591.09,581.28 -591.37,581.55 -591.65,581.82 -591.95,582.10 -592.26,582.39 -592.60,582.71 -592.96,583.05 -593.35,583.43 -593.77,583.85 -594.22,584.32 -594.71,584.86"/>
    </edge>
    <edge id=":26_1" function="internal">
        <lane id=":26_1_0" index="0" disallow="pedestrian tram rail_urban rail rail_electric rail_fast ship" speed="36.11" length="10.82" width="3.49" shape="-595.42,583.94 -584.64,583.07"/>
    </edge>
    <edge id=":6_0" function="internal">
        <lane id=":6_0_0" index="0" disallow="pedestrian tram rail_urban rail rail_electric rail_fast ship" speed="36.11" length="2.99" width="3.50" shape="-598.60,598.24 -599.09,601.19"/>
    </edge>
    <edge id=":9_0" function="internal">
        <lane id=":9_0_0" index="0" disallow="pedestrian tram rail_urban rail rail_electric rail_fast ship" speed="36.11" length="0.24" width="3.49" shape="-567.12,581.36 -567.10,581.36 -567.08,581.36 -567.07,581.36 -567.06,581.36 -567.05,581.37 -567.03,581.37 -567.02,581.37 -567.02,581.37 -567.01,581.37 -567.00,581.37 -566.99,581.37 -566.98,581.37 -566.97,581.37 -566.96,581.37 -566.95,581.37 -566.93,581.38 -566.92,581.38 -566.90,581.38 -566.89,581.38"/>
    </edge>

    <edge id="20979" from="19" to="25" priority="3" type="highway.residential" spreadType="center" length="2.57">
        <lane id="20979_0" index="0" disallow="pedestrian tram rail_urban rail rail_electric rail_fast ship" speed="36.11" length="2.57" width="3.50" customShape="1" shape="-586.09,586.77 -588.64,587.10"/>
    </edge>
    <edge id="20982" from="16" to="19" priority="3" type="highway.residential" spreadType="center" length="15.84">
        <lane id="20982_0" index="0" disallow="pedestrian tram rail_urban rail rail_electric rail_fast ship" speed="36.11" length="15.84" width="3.50" customShape="1" shape="-567.36,584.85 -568.14,584.84 -571.76,585.01 -579.98,586.00 -583.11,586.40"/>
    </edge>
    <edge id="20983" from="26" to="9" priority="3" type="highway.residential" spreadType="center" length="17.62">
        <lane id="20983_0" index="0" disallow="pedestrian tram rail_urban rail rail_electric rail_fast ship" speed="36.11" length="17.62" width="3.49" customShape="1" shape="-584.64,583.07 -580.37,582.53 -571.92,581.51 -568.12,581.34 -567.12,581.36"/>
    </edge>
    <edge id="21001" from="10" to="11" priority="3" type="highway.residential" spreadType="center" length="27.79">
        <lane id="21001_0" index="0" disallow="pedestrian tram rail_urban rail rail_electric rail_fast ship" speed="36.11" length="27.79" width="3.50" customShape="1" shape="-589.38,571.94 -587.13,567.85 -583.82,562.05 -580.16,556.47 -574.43,548.55"/>
    </edge>
    <edge id="21002" from="18" to="26" priority="3" type="highway.residential" spreadType="center" length="31.70">
        <lane id="21002_0" index="0" disallow="pedestrian tram rail_urban rail rail_electric rail_fast ship" speed="36.11" length="31.70" width="3.50" customShape="1" shape="-571.63,550.66 -577.28,558.45 -580.85,563.91 -584.10,569.61 -588.43,577.49"/>
    </edge>
    <edge id="21021" from="26" to="25" priority="3" type="highway.residential" spreadType="center" length="0.21" shape="-584.98,580.41 -597.47,588.04">
        <lane id="21021_0" index="0" disallow="pedestrian tram rail_urban rail rail_electric rail_fast ship" speed="36.11" length="0.21" width="3.50" customShape="1" shape="-594.71,584.86 -594.85,585.01"/>
    </edge>
    <edge id="21092" from="6" to="7" priority="3" type="highway.residential" spreadType="center" length="39.64">
        <lane id="21092_0" index="0" disallow="pedestrian tram rail_urban rail rail_electric rail_fast ship" speed="36.11" length="39.64" width="3.50" customShape="1" shape="-599.09,601.19 -601.37,614.74 -605.97,640.23"/>
    </edge>
    <edge id="21093" from="21" to="20" priority="3" type="highway.residential" spreadType="center" length="39.57">
        <lane id="21093_0" index="0" disallow="pedestrian tram rail_urban rail rail_electric rail_fast ship" speed="36.11" length="39.57" width="3.50" customShape="1" shape="-609.41,639.59 -604.82,614.13 -602.54,600.62"/>
    </edge>
    <edge id="21217" from="12" to="25" priority="3" type="highway.residential" spreadType="center" length="68.74" shape="-675.45,582.02 -598.28,584.80">
        <lane id="21217_0" index="0" disallow="pedestrian tram rail_urban rail rail_electric rail_fast ship" speed="36.11" length="68.74" width="3.50" customShape="1" shape="-675.45,582.02 -673.25,582.40 -663.32,583.89 -655.83,584.66 -645.80,585.21 -628.24,585.79 -614.19,585.87 -606.92,585.66"/>
    </edge>
    <edge id="21218" from="25" to="3" priority="3" type="highway.residential" spreadType="center" length="68.63" shape="-598.40,588.30 -675.25,585.61">
        <lane id="21218_0" index="0" disallow="pedestrian tram rail_urban rail rail_electric rail_fast ship" speed="36.11" length="68.63" width="3.50" customShape="1" shape="-606.82,589.16 -614.13,589.37 -628.30,589.29 -645.98,588.71 -656.10,588.14 -663.71,587.37 -673.74,585.87 -675.25,585.61"/>
    </edge>
    <edge id="21409" from="20" to="25" priority="3" type="highway.residential" spreadType="center" length="2.79" shape="-602.29,599.14 -600.02,586.04">
        <lane id="21409_0" index="0" disallow="pedestrian tram rail_urban rail rail_electric rail_fast ship" speed="36.11" length="2.79" width="3.43" customShape="1" shape="-602.05,597.66 -601.89,596.67 -601.63,594.90"/>
    </edge>
    <edge id="22707" from="15" to="16" priority="3" type="highway.residential" spreadType="center" length="27.13">
        <lane id="22707_0" index="0" disallow="pedestrian tram rail_urban rail rail_electric rail_fast ship" speed="36.11" length="27.13" width="3.50" customShape="1" shape="-541.61,594.13 -555.50,588.70 -563.46,585.85 -566.38,584.99 -567.09,584.87"/>
    </edge>
    <edge id="22812" from="25" to="6" priority="3" type="highway.residential" spreadType="center" length="3.06" shape="-596.64,586.61 -598.84,599.71">
        <lane id="22812_0" index="0" disallow="pedestrian tram rail_urban rail rail_electric rail_fast ship" speed="36.11" length="3.06" width="3.48" customShape="1" shape="-598.15,595.21 -598.43,597.19 -598.60,598.24"/>
    </edge>
    <edge id="23266" from="9" to="14" priority="3" type="highway.residential" spreadType="center" length="28.25">
        <lane id="23266_0" index="0" disallow="pedestrian tram rail_urban rail rail_electric rail_fast ship" speed="36.11" length="28.25" width="3.49" customShape="1" shape="-566.89,581.38 -565.90,581.53 -562.76,582.42 -554.54,585.33 -540.32,590.88"/>
    </edge>
    <edge id="23288" from="25" to="26" priority="3" type="highway.residential" spreadType="center" length="0.20" shape="-599.29,585.06 -586.79,577.45">
        <lane id="23288_0" index="0" disallow="pedestrian tram rail_urban rail rail_electric rail_fast ship" speed="36.11" length="0.20" width="3.49" customShape="1" shape="-595.62,583.95 -595.42,583.94"/>
    </edge>
    <edge id="23342" from="25" to="10" priority="3" type="highway.residential" spreadType="center" length="3.52">
        <lane id="23342_0" index="0" disallow="pedestrian tram rail_urban rail rail_electric rail_fast ship" speed="36.11" length="3.52" width="3.50" customShape="1" shape="-592.66,577.51 -592.39,577.12 -590.84,574.50"/>
    </edge>

    <junction id="10" type="priority" x="-590.09" y="573.23" incLanes="23342_0" intLanes=":10_0_0" shape="-587.84,572.78 -590.91,571.10 -592.34,573.61 -589.33,575.39" rightOfWay="edgePriority">
        <request index="0" response="0" foes="0" cont="0"/>
    </junction>
    <junction id="11" type="dead_end" x="-574.43" y="548.55" incLanes="21001_0" intLanes="" shape="-575.85,547.53 -573.01,549.58" rightOfWay="edgePriority"/>
    <junction id="12" type="dead_end" x="-675.45" y="582.02" incLanes="" intLanes="" shape="-675.75,583.74 -675.15,580.30" rightOfWay="edgePriority"/>
    <junction id="14" type="dead_end" x="-540.32" y="590.88" incLanes="23266_0" intLanes="" shape="-539.68,589.25 -540.95,592.50" rightOfWay="edgePriority"/>
    <junction id="15" type="dead_end" x="-541.61" y="594.13" incLanes="" intLanes="" shape="-540.98,592.50 -542.25,595.76" rightOfWay="edgePriority"/>
    <junction id="16" type="priority" x="-567.22" y="584.85" incLanes="22707_0" intLanes=":16_0_0" shape="-567.38,586.60 -566.80,583.15 -567.00,583.12 -567.07,583.11 -567.14,583.11 -567.34,583.10" rightOfWay="edgePriority">
        <request index="0" response="0" foes="0" cont="0"/>
    </junction>
    <junction id="18" type="dead_end" x="-571.63" y="550.66" incLanes="" intLanes="" shape="-573.05,549.63 -570.21,551.68" rightOfWay="edgePriority"/>
    <junction id="19" type="priority" x="-584.60" y="586.59" incLanes="20982_0" intLanes=":19_0_0" shape="-582.89,588.13 -583.33,584.66 -586.30,585.04 -585.87,588.51" rightOfWay="edgePriority">
        <request index="0" response="0" foes="0" cont="0"/>
    </junction>
    <junction id="20" type="priority" x="-602.29" y="599.14" incLanes="21093_0" intLanes=":20_0_0" shape="-600.36,597.94 -603.74,597.38 -604.27,600.33 -600.82,600.91" rightOfWay="edgePriority">
        <request index="0" response="0" foes="0" cont="0"/>
    </junction>
    <junction id="21" type="dead_end" x="-609.41" y="639.59" incLanes="" intLanes="" shape="-607.69,639.91 -611.14,639.28" rightOfWay="edgePriority"/>
    <junction id="25" type="priority" x="-598.38" y="586.55" incLanes="20979_0 21021_0 21217_0 21409_0" intLanes=":25_0_0 :25_1_0 :25_2_0 :25_3_0 :25_4_0 :25_5_0 :25_6_0 :25_7_0 :25_8_0 :25_9_0" shape="-588.91,588.89 -588.37,585.30 -590.14,585.19 -590.53,584.83 -590.60,584.27 -590.34,583.50 -589.75,582.52 -592.23,579.95 -593.29,581.71 -593.79,583.13 -593.74,584.22 -593.13,584.97 -591.96,585.39 -590.24,585.47 -589.82,581.96 -591.73,581.68 -592.16,581.25 -592.26,580.62 -592.01,579.80 -591.42,578.79 -593.91,576.24 -595.47,578.48 -597.30,580.37 -599.36,581.86 -601.67,582.95 -604.20,583.63 -606.97,583.92 -606.77,590.91 -604.61,591.28 -603.91,591.81 -603.47,592.57 -603.28,593.55 -603.34,594.75 -596.42,595.37 -595.24,592.15 -594.15,590.94 -592.74,589.99 -590.99,589.31">
        <request index="0" response="0000000000" foes="0001000100" cont="0"/>
        <request index="1" response="0000000000" foes="1111001100" cont="0"/>
        <request index="2" response="0001000011" foes="0001000011" cont="0"/>
        <request index="3" response="0101000010" foes="1111000010" cont="0"/>
        <request index="4" response="0000000000" foes="0100000000" cont="0"/>
        <request index="5" response="0000000000" foes="1100000000" cont="0"/>
        <request index="6" response="0000000011" foes="1100001111" cont="0"/>
        <request index="7" response="0000001010" foes="0000001010" cont="0"/>
        <request index="8" response="0001110010" foes="0001111010" cont="0"/>
        <request index="9" response="0001101010" foes="0001101010" cont="0"/>
    </junction>
    <junction id="26" type="priority" x="-586.06" y="579.04" incLanes="21002_0 23288_0" intLanes=":26_0_0 :26_1_0" shape="-584.42,584.80 -584.86,581.33 -586.85,581.22 -587.35,580.83 -587.53,580.22 -587.38,579.39 -586.90,578.33 -589.96,576.64 -601.37,580.89 -600.96,584.69 -599.87,587.91 -596.81,589.82">
        <request index="0" response="00" foes="10" cont="0"/>
        <request index="1" response="01" foes="01" cont="0"/>
    </junction>
    <junction id="3" type="dead_end" x="-675.25" y="585.61" incLanes="21218_0" intLanes="" shape="-675.55,587.33 -674.95,583.88" rightOfWay="edgePriority"/>
    <junction id="6" type="priority" x="-598.84" y="599.71" incLanes="22812_0" intLanes=":6_0_0" shape="-596.88,598.52 -600.32,597.95 -600.81,600.90 -597.36,601.48" rightOfWay="edgePriority">
        <request index="0" response="0" foes="0" cont="0"/>
    </junction>
    <junction id="7" type="dead_end" x="-605.97" y="640.23" incLanes="21092_0" intLanes="" shape="-604.25,640.54 -607.69,639.92" rightOfWay="edgePriority"/>
    <junction id="9" type="priority" x="-567.00" y="581.37" incLanes="20983_0" intLanes=":9_0_0" shape="-567.15,583.11 -566.63,579.66 -566.79,579.63 -566.85,579.63 -566.91,579.62 -566.99,579.62" rightOfWay="edgePriority">
        <request index="0" response="0" foes="0" cont="0"/>
    </junction>

    <connection from="20979" to="22812" fromLane="0" toLane="0" contPos="-4.00" shape="-594.27,587.21 -595.26,587.16 -596.04,587.32 -596.65,587.78 -597.08,588.52 -597.37,589.49 -597.53,590.62" via=":25_0_0" dir="r" state="M"/>
    <connection from="20979" to="21218" fromLane="0" toLane="0" contPos="-4.00" shape="-594.27,587.21 -595.33,587.15 -596.32,587.20 -597.30,587.35 -602.95,588.79 -605.46,589.12" via=":25_1_0" dir="s" state="M"/>
    <connection from="20982" to="20979" fromLane="0" toLane="0" contPos="-4.00" via=":19_0_0" dir="s" state="M"/>
    <connection from="20983" to="23266" fromLane="0" toLane="0" contPos="-4.00" via=":9_0_0" dir="s" state="M"/>
    <connection from="21002" to="21021" fromLane="0" toLane="0" contPos="-4.00" via=":26_0_0" dir="s" state="M"/>
    <connection from="21021" to="22812" fromLane="0" toLane="0" contPos="-4.00" shape="-593.37,584.10 -594.73,585.50 -595.96,587.03 -596.51,587.84 -596.98,588.71 -597.33,589.62 -597.53,590.62" via=":25_2_0" dir="r" state="m"/>
    <connection from="21021" to="21218" fromLane="0" toLane="0" contPos="-4.00" shape="-593.37,584.10 -594.29,584.93 -596.25,586.35 -598.42,587.51 -600.73,588.35 -603.10,588.88 -605.46,589.12" via=":25_3_0" dir="s" state="m"/>
    <connection from="21093" to="21409" fromLane="0" toLane="0" contPos="-4.00" via=":20_0_0" dir="s" state="M"/>
    <connection from="21217" to="23342" fromLane="0" toLane="0" contPos="-4.00" shape="-605.66,585.63 -603.69,585.43 -601.75,585.00 -599.88,584.33 -598.13,583.40 -596.53,582.23 -595.81,581.59" via=":25_4_0" dir="r" state="M"/>
    <connection from="21217" to="23288" fromLane="0" toLane="0" contPos="-4.00" shape="-605.66,585.63 -603.30,585.32 -597.52,583.89 -596.35,583.72 -595.16,583.66 -593.96,583.73" via=":25_5_0" dir="s" state="M"/>
    <connection from="21217" to="22812" fromLane="0" toLane="0" contPos="-4.00" shape="-605.66,585.63 -603.82,585.62 -601.98,585.79 -600.20,586.26 -598.64,587.21 -597.69,588.76 -597.53,590.62" via=":25_6_0" dir="l" state="m"/>
    <connection from="21409" to="21218" fromLane="0" toLane="0" contPos="-4.00" shape="-600.98,590.40 -600.74,590.06 -601.29,589.57 -602.12,589.33 -603.14,589.17 -604.30,589.10 -605.46,589.12" via=":25_7_0" dir="r" state="m"/>
    <connection from="21409" to="23342" fromLane="0" toLane="0" contPos="-4.00" shape="-600.98,590.40 -600.75,588.86 -600.28,587.54 -599.68,586.36 -598.98,585.24 -597.46,583.32 -595.81,581.59" via=":25_8_0" dir="s" state="m"/>
    <connection from="21409" to="23288" fromLane="0" toLane="0" contPos="-4.00" shape="-600.98,590.40 -600.72,588.45 -600.13,586.70 -599.09,585.19 -597.59,584.14 -595.81,583.70 -593.96,583.73" via=":25_9_0" dir="l" state="m"/>
    <connection from="22707" to="20982" fromLane="0" toLane="0" contPos="-4.00" via=":16_0_0" dir="s" state="M"/>
    <connection from="22812" to="21092" fromLane="0" toLane="0" contPos="-4.00" via=":6_0_0" dir="s" state="M"/>
    <connection from="23288" to="20983" fromLane="0" toLane="0" contPos="-4.00" via=":26_1_0" dir="s" state="m"/>
    <connection from="23342" to="21001" fromLane="0" toLane="0" contPos="-4.00" via=":10_0_0" dir="s" state="M"/>

    <connection from=":10_0" to="21001" fromLane="0" toLane="0" dir="s" state="M"/>
    <connection from=":16_0" to="20982" fromLane="0" toLane="0" dir="s" state="M"/>
    <connection from=":19_0" to="20979" fromLane="0" toLane="0" dir="s" state="M"/>
    <connection from=":20_0" to="21409" fromLane="0" toLane="0" dir="s" state="M"/>
    <connection from=":25_0" to="22812" fromLane="0" toLane="0" dir="r" state="M"/>
    <connection from=":25_1" to="21218" fromLane="0" toLane="0" dir="s" state="M"/>
    <connection from=":25_2" to="22812" fromLane="0" toLane="0" dir="r" state="M"/>
    <connection from=":25_3" to="21218" fromLane="0" toLane="0" dir="s" state="M"/>
    <connection from=":25_4" to="23342" fromLane="0" toLane="0" dir="r" state="M"/>
    <connection from=":25_5" to="23288" fromLane="0" toLane="0" dir="s" state="M"/>
    <connection from=":25_6" to="22812" fromLane="0" toLane="0" dir="l" state="M"/>
    <connection from=":25_7" to="21218" fromLane="0" toLane="0" dir="r" state="M"/>
    <connection from=":25_8" to="23342" fromLane="0" toLane="0" dir="s" state="M"/>
    <connection from=":25_9" to="23288" fromLane="0" toLane="0" dir="l" state="M"/>
    <connection from=":26_0" to="21021" fromLane="0" toLane="0" dir="s" state="M"/>
    <connection from=":26_1" to="20983" fromLane="0" toLane="0" dir="s" state="M"/>
    <connection from=":6_0" to="21092" fromLane="0" toLane="0" dir="s" state="M"/>
    <connection from=":9_0" to="23266" fromLane="0" toLane="0" dir="s" state="M"/>

</net>