<routes>
	<vehicle depart="0.1" departLane="0" departPos="31.53769728947382" departSpeed="4.1203228" id="1" type="passenger">
		<route edges="50201 50213 50197"/>
	</vehicle>
	<vehicle depart="0.1" departLane="0" departPos="121.34742151669167" departSpeed="0.29801829" id="2" type="passenger">
		<route edges="50195 50211 50199"/>
	</vehicle>
	<vehicle depart="0.1" departLane="0" departPos="143.54720619653665" departSpeed="1.7058503" id="4" type="passenger">
		<route edges="50205 50207 50197"/>
	</vehicle>
	<vehicle depart="0.1" departLane="0" departPos="151.54722430536663" departSpeed="4.1226194" id="5" type="passenger">
		<route edges="50205 50217 50199"/>
	</vehicle>
	<vehicle depart="0.1" departLane="0" departPos="23.5340727481256" departSpeed="2.4331424" id="7" type="passenger">
		<route edges="50201 50213 50197"/>
	</vehicle>
</routes>
