<routes>
	<vehicle depart="0.1" departLane="0" departPos="10.640674731083982" departSpeed="0.43618217" id="39" type="passenger">
		<route edges=":22_1 130908"/>
	</vehicle>
	<vehicle depart="0.1" departLane="0" departPos="11.11203066723459" departSpeed="0.2456736" id="320" type="passenger">
		<route edges=":22_6 126472"/>
	</vehicle>
	<vehicle depart="0.1" departLane="0" departPos="31.59585021855771" departSpeed="16.882776" id="343" type="passenger">
		<route edges="125233 126472"/>
	</vehicle>
	<vehicle depart="0.1" departLane="0" departPos="9.093644675328523" departSpeed="1.4999275" id="30" type="truck">
		<route edges=":22_4 130221 125969"/>
	</vehicle>
</routes>
