<!-- generated on Tue Feb  9 22:13:54 2021 by Eclipse SUMO netconvert Version 1.8.0
<configuration xmlns:xsi="http://www.w3.org/2001/XMLSchema-instance" xsi:noNamespaceSchemaLocation="http://sumo.dlr.de/xsd/netconvertConfiguration.xsd">

    <input>
        <node-files value="./converted_scenarios/scenario-factory/ESP_SantBoideLlobregat-4_1_I-1-1/ESP_SantBoideLlobregat-4_1_I-1-1.nod.xml"/>
        <edge-files value="./converted_scenarios/scenario-factory/ESP_SantBoideLlobregat-4_1_I-1-1/ESP_SantBoideLlobregat-4_1_I-1-1.edg.xml"/>
        <connection-files value="./converted_scenarios/scenario-factory/ESP_SantBoideLlobregat-4_1_I-1-1/ESP_SantBoideLlobregat-4_1_I-1-1.con.xml"/>
        <tllogic-files value="./converted_scenarios/scenario-factory/ESP_SantBoideLlobregat-4_1_I-1-1/ESP_SantBoideLlobregat-4_1_I-1-1.tll.xml"/>
        <type-files value="/home/zen/commonroad-interactive-benchmarks/install/commonroad-map-tool/crmapconverter/sumo_map/templates/DEU.typ.xml"/>
    </input>

    <output>
        <output-file value="./converted_scenarios/scenario-factory/ESP_SantBoideLlobregat-4_1_I-1-1/ESP_SantBoideLlobregat-4_1_I-1-1.net.xml"/>
    </output>

    <processing>
        <geometry.remove.keep-edges.explicit value="true"/>
        <geometry.avoid-overlap value="true"/>
        <offset.disable-normalization value="true"/>
    </processing>

    <junctions>
        <no-turnarounds value="true"/>
        <junctions.internal-link-detail value="20"/>
    </junctions>

    <report>
        <aggregate-warnings value="5"/>
    </report>

    <random_number>
        <seed value="1234"/>
    </random_number>

</configuration>
--><net xmlns:xsi="http://www.w3.org/2001/XMLSchema-instance" version="1.6" junctionCornerDetail="5" junctionLinkDetail="20" limitTurnSpeed="5.50" xsi:noNamespaceSchemaLocation="http://sumo.dlr.de/xsd/net_file.xsd">

    <location netOffset="0.00,0.00" convBoundary="-712.52,-389.77,-541.67,-231.52" origBoundary="-712.86,-389.77,-541.02,-231.52" projParameter="!"/>

    <type id="highway.bridleway" priority="1" speed="2.78" allow="pedestrian" oneway="1" width="2.00"/>
    <type id="highway.bus_guideway" priority="1" speed="27.78" allow="bus" oneway="1"/>
    <type id="highway.cycleway" priority="1" speed="8.33" allow="bicycle" oneway="0" width="1.00"/>
    <type id="highway.footway" priority="1" speed="2.78" allow="pedestrian" oneway="1" width="2.00"/>
    <type id="highway.ford" priority="1" speed="2.78" allow="army" oneway="0"/>
    <type id="highway.living_street" priority="2" speed="2.78" disallow="tram rail_urban rail rail_electric rail_fast ship" oneway="0"/>
    <type id="highway.motorway" priority="14" speed="39.44" allow="private emergency authority army vip passenger hov taxi bus coach delivery truck trailer motorcycle evehicle custom1 custom2" oneway="1"/>
    <type id="highway.motorway_link" priority="9" speed="22.22" allow="private emergency authority army vip passenger hov taxi bus coach delivery truck trailer motorcycle evehicle custom1 custom2" oneway="1"/>
    <type id="highway.path" priority="1" speed="2.78" allow="pedestrian bicycle" oneway="0" width="2.00"/>
    <type id="highway.pedestrian" priority="1" speed="2.78" allow="pedestrian" oneway="1" width="2.00"/>
    <type id="highway.primary" priority="12" speed="27.78" disallow="pedestrian tram rail_urban rail rail_electric rail_fast ship" oneway="0"/>
    <type id="highway.primary_link" priority="7" speed="22.22" disallow="pedestrian tram rail_urban rail rail_electric rail_fast ship" oneway="0"/>
    <type id="highway.raceway" priority="15" speed="83.33" allow="vip" oneway="0"/>
    <type id="highway.residential" priority="3" speed="13.89" disallow="pedestrian tram rail_urban rail rail_electric rail_fast ship" oneway="0"/>
    <type id="highway.secondary" priority="11" speed="27.78" disallow="pedestrian tram rail_urban rail rail_electric rail_fast ship" oneway="0"/>
    <type id="highway.secondary_link" priority="6" speed="22.22" disallow="pedestrian tram rail_urban rail rail_electric rail_fast ship" oneway="0"/>
    <type id="highway.service" priority="1" speed="5.56" allow="pedestrian delivery bicycle" oneway="0"/>
    <type id="highway.stairs" priority="1" speed="1.39" allow="pedestrian" oneway="1" width="2.00"/>
    <type id="highway.step" priority="1" speed="1.39" allow="pedestrian" oneway="1" width="2.00"/>
    <type id="highway.steps" priority="1" speed="1.39" allow="pedestrian" oneway="1" width="2.00"/>
    <type id="highway.tertiary" priority="10" speed="22.22" disallow="pedestrian tram rail_urban rail rail_electric rail_fast ship" oneway="0"/>
    <type id="highway.tertiary_link" priority="5" speed="22.22" disallow="pedestrian tram rail_urban rail rail_electric rail_fast ship" oneway="0"/>
    <type id="highway.track" priority="1" speed="5.56" allow="pedestrian motorcycle moped bicycle" oneway="0"/>
    <type id="highway.trunk" priority="13" speed="27.78" disallow="pedestrian bicycle tram rail_urban rail rail_electric rail_fast ship" oneway="0"/>
    <type id="highway.trunk_link" priority="8" speed="22.22" disallow="pedestrian bicycle tram rail_urban rail rail_electric rail_fast ship" oneway="0"/>
    <type id="highway.unclassified" priority="4" speed="13.89" disallow="pedestrian tram rail_urban rail rail_electric rail_fast ship" oneway="0"/>
    <type id="highway.unsurfaced" priority="1" speed="8.33" disallow="tram rail_urban rail rail_electric rail_fast ship" oneway="0"/>
    <type id="railway.highspeed" priority="21" speed="69.44" allow="rail_fast" oneway="1"/>
    <type id="railway.light_rail" priority="19" speed="27.78" allow="rail_urban" oneway="1"/>
    <type id="railway.preserved" priority="16" speed="27.78" allow="rail" oneway="1"/>
    <type id="railway.rail" priority="20" speed="44.44" allow="rail" oneway="1"/>
    <type id="railway.subway" priority="18" speed="27.78" allow="rail_urban" oneway="1"/>
    <type id="railway.tram" priority="17" speed="13.89" allow="tram" oneway="1"/>

    <edge id=":11_0" function="internal">
        <lane id=":11_0_0" index="0" disallow="pedestrian tram rail_urban rail rail_electric rail_fast ship" speed="3.26" length="2.99" width="3.50" shape="-646.36,-273.10 -644.43,-275.39"/>
    </edge>
    <edge id=":14_0" function="internal">
        <lane id=":14_0_0" index="0" disallow="pedestrian tram rail_urban rail rail_electric rail_fast ship" speed="36.11" length="2.99" width="3.50" shape="-616.19,-255.95 -617.71,-258.52"/>
    </edge>
    <edge id=":18_0" function="internal">
        <lane id=":18_0_0" index="0" disallow="pedestrian tram rail_urban rail rail_electric rail_fast ship" speed="36.11" length="3.00" width="3.50" shape="-665.31,-332.32 -662.37,-331.74"/>
        <lane id=":18_0_1" index="1" disallow="pedestrian tram rail_urban rail rail_electric rail_fast ship" speed="36.11" length="3.00" width="3.50" shape="-665.99,-328.88 -663.05,-328.30"/>
    </edge>
    <edge id=":22_0" function="internal">
        <lane id=":22_0_0" index="0" disallow="pedestrian tram rail_urban rail rail_electric rail_fast ship" speed="8.70" length="13.83" width="3.50" shape="-606.04,-326.59 -606.11,-324.01 -605.86,-320.82 -605.42,-318.74 -604.87,-317.23 -604.08,-315.85 -602.99,-314.68 -602.05,-314.05"/>
    </edge>
    <edge id=":22_1" function="internal">
        <lane id=":22_1_0" index="0" disallow="pedestrian tram rail_urban rail rail_electric rail_fast ship" speed="9.04" length="17.31" width="3.50" shape="-608.91,-327.33 -610.28,-324.54 -612.00,-321.75 -613.70,-319.62 -615.30,-318.14 -616.67,-317.25 -618.20,-316.66 -619.82,-316.47 -620.93,-316.57"/>
    </edge>
    <edge id=":22_2" function="internal">
        <lane id=":22_2_0" index="0" disallow="pedestrian tram rail_urban rail rail_electric rail_fast ship" speed="14.63" length="16.24" width="3.50" shape="-619.75,-323.47 -616.09,-322.97 -611.97,-322.79 -607.85,-323.00 -603.77,-323.57 -603.60,-323.61"/>
    </edge>
    <edge id=":22_3" function="internal">
        <lane id=":22_3_0" index="0" disallow="pedestrian tram rail_urban rail rail_electric rail_fast ship" speed="36.11" length="20.19" width="3.50" shape="-619.75,-323.47 -617.26,-322.86 -615.04,-322.02 -612.00,-320.45 -608.35,-318.08 -603.94,-315.14 -602.05,-314.06"/>
    </edge>
    <edge id=":22_4" function="internal">
        <lane id=":22_4_0" index="0" disallow="pedestrian tram rail_urban rail rail_electric rail_fast ship" speed="36.11" length="19.06" width="3.50" shape="-620.34,-320.03 -618.24,-319.51 -616.27,-318.77 -613.47,-317.31 -609.95,-314.99 -605.58,-312.05 -603.71,-310.98"/>
    </edge>
    <edge id=":22_5" function="internal">
        <lane id=":22_5_0" index="0" disallow="pedestrian tram rail_urban rail rail_electric rail_fast ship" speed="5.73" length="9.45" width="3.50" shape="-618.94,-306.57 -618.47,-307.17 -617.77,-308.44 -617.53,-309.12 -617.41,-309.84 -617.46,-310.56 -617.73,-311.22 -618.20,-311.78 -618.78,-312.21 -620.11,-312.78 -621.52,-313.12"/>
    </edge>
    <edge id=":22_6" function="internal">
        <lane id=":22_6_0" index="0" disallow="pedestrian tram rail_urban rail rail_electric rail_fast ship" speed="36.11" length="22.01" width="3.50" shape="-618.83,-306.47 -617.01,-308.38 -613.25,-311.78 -608.48,-315.56 -602.28,-319.95 -601.75,-320.28"/>
    </edge>
    <edge id=":22_7" function="internal">
        <lane id=":22_7_0" index="0" disallow="pedestrian tram rail_urban rail rail_electric rail_fast ship" speed="9.56" length="17.13" width="3.50" shape="-618.82,-306.46 -617.47,-307.87 -615.31,-309.65 -613.41,-310.84 -611.35,-311.72 -609.71,-312.11 -608.04,-312.20 -606.37,-311.99 -604.77,-311.48 -603.71,-310.98"/>
    </edge>
    <edge id=":23_0" function="internal">
        <lane id=":23_0_0" index="0" disallow="pedestrian tram rail_urban rail rail_electric rail_fast ship" speed="4.53" length="2.82" width="3.50" shape="-631.59,-283.88 -631.71,-284.48 -631.82,-286.69"/>
    </edge>
    <edge id=":23_1" function="internal">
        <lane id=":23_1_0" index="0" disallow="pedestrian tram rail_urban rail rail_electric rail_fast ship" speed="36.11" length="6.54" width="3.50" shape="-637.92,-283.13 -635.61,-285.87 -633.77,-288.18"/>
    </edge>
    <edge id=":5_0" function="internal">
        <lane id=":5_0_0" index="0" disallow="pedestrian tram rail_urban rail rail_electric rail_fast ship" speed="36.11" length="3.01" width="3.50" shape="-584.97,-306.21 -582.20,-305.04"/>
        <lane id=":5_0_1" index="1" disallow="pedestrian tram rail_urban rail rail_electric rail_fast ship" speed="36.11" length="3.01" width="3.50" shape="-586.33,-302.98 -583.56,-301.81"/>
    </edge>
    <edge id=":9_0" function="internal">
        <lane id=":9_0_0" index="0" disallow="pedestrian tram rail_urban rail rail_electric rail_fast ship" speed="36.11" length="3.01" width="3.50" shape="-664.40,-321.43 -667.35,-322.02"/>
        <lane id=":9_0_1" index="1" disallow="pedestrian tram rail_urban rail rail_electric rail_fast ship" speed="36.11" length="3.01" width="3.50" shape="-663.72,-324.87 -666.67,-325.45"/>
    </edge>

    <edge id="125115" from="23" to="22" priority="3" type="highway.residential" spreadType="center" length="23.63">
        <lane id="125115_0" index="0" disallow="pedestrian tram rail_urban rail rail_electric rail_fast ship" speed="36.11" length="23.63" width="3.50" customShape="1" shape="-633.67,-288.10 -629.12,-294.03 -629.04,-294.13 -622.96,-301.74 -619.97,-305.26 -619.88,-305.35 -618.87,-306.51"/>
    </edge>
    <edge id="125233" from="18" to="22" priority="3" type="highway.residential" spreadType="center" length="43.42" shape="-664.18,-330.31 -607.89,-325.60">
        <lane id="125233_0" index="0" disallow="pedestrian tram rail_urban rail rail_electric rail_fast ship" speed="36.11" length="43.42" width="3.50" customShape="1" shape="-662.37,-331.74 -650.75,-329.44 -637.66,-326.86 -637.54,-326.84 -637.42,-326.81 -628.66,-325.16 -619.90,-323.50 -619.75,-323.47"/>
        <lane id="125233_1" index="1" disallow="pedestrian tram rail_urban rail rail_electric rail_fast ship" speed="36.11" length="43.57" width="3.50" customShape="1" shape="-663.05,-328.30 -651.43,-326.01 -638.34,-323.43 -638.21,-323.40 -638.09,-323.38 -629.31,-321.72 -620.53,-320.06 -620.41,-320.04 -620.28,-320.01"/>
    </edge>
    <edge id="125363" from="11" to="23" priority="3" type="highway.residential" spreadType="center" length="12.87">
        <lane id="125363_0" index="0" disallow="pedestrian tram rail_urban rail rail_electric rail_fast ship" speed="36.11" length="12.87" width="3.50" customShape="1" shape="-644.43,-275.39 -645.33,-274.35 -637.82,-283.05"/>
    </edge>
    <edge id="125753" from="16" to="14" priority="3" type="highway.residential" spreadType="center" length="28.26">
        <lane id="125753_0" index="0" disallow="pedestrian tram rail_urban rail rail_electric rail_fast ship" speed="36.11" length="28.26" width="3.50" customShape="1" shape="-601.99,-231.52 -609.46,-244.38 -616.19,-255.95"/>
    </edge>
    <edge id="125755" from="14" to="23" priority="3" type="highway.residential" spreadType="center" length="28.81">
        <lane id="125755_0" index="0" disallow="pedestrian tram rail_urban rail rail_electric rail_fast ship" speed="36.11" length="28.81" width="3.50" customShape="1" shape="-617.71,-258.52 -623.62,-268.35 -627.00,-273.58 -627.07,-273.68 -633.23,-282.78"/>
    </edge>
    <edge id="125969" from="5" to="6" priority="3" type="highway.residential" spreadType="center" length="44.64">
        <lane id="125969_0" index="0" disallow="pedestrian tram rail_urban rail rail_electric rail_fast ship" speed="36.11" length="44.64" width="3.50" customShape="1" shape="-582.20,-305.04 -551.35,-292.03 -541.01,-287.83"/>
        <lane id="125969_1" index="1" disallow="pedestrian tram rail_urban rail rail_electric rail_fast ship" speed="36.11" length="44.70" width="3.50" customShape="1" shape="-583.56,-301.81 -552.67,-288.79 -542.32,-284.58"/>
    </edge>
    <edge id="126113" from="7" to="22" priority="3" type="highway.residential" spreadType="center" length="64.81">
        <lane id="126113_0" index="0" disallow="pedestrian tram rail_urban rail rail_electric rail_fast ship" speed="36.11" length="64.81" width="3.50" customShape="1" shape="-591.51,-389.77 -597.15,-367.67 -607.52,-326.97"/>
    </edge>
    <edge id="126241" from="19" to="18" priority="3" type="highway.residential" spreadType="center" length="46.39">
        <lane id="126241_0" index="0" disallow="pedestrian tram rail_urban rail rail_electric rail_fast ship" speed="36.11" length="46.39" width="3.50" customShape="1" shape="-710.82,-341.30 -687.33,-336.66 -665.31,-332.32"/>
        <lane id="126241_1" index="1" disallow="pedestrian tram rail_urban rail rail_electric rail_fast ship" speed="36.11" length="46.39" width="3.50" customShape="1" shape="-711.50,-337.86 -688.01,-333.23 -665.99,-328.88"/>
    </edge>
    <edge id="126244" from="9" to="10" priority="3" type="highway.residential" spreadType="center" length="46.39">
        <lane id="126244_0" index="0" disallow="pedestrian tram rail_urban rail rail_electric rail_fast ship" speed="36.11" length="46.39" width="3.50" customShape="1" shape="-667.35,-322.02 -689.37,-326.36 -712.86,-331.00"/>
        <lane id="126244_1" index="1" disallow="pedestrian tram rail_urban rail rail_electric rail_fast ship" speed="36.11" length="46.39" width="3.50" customShape="1" shape="-666.67,-325.45 -688.69,-329.80 -712.18,-334.43"/>
    </edge>
    <edge id="126472" from="22" to="3" priority="3" type="highway.residential" spreadType="center" length="56.76">
        <lane id="126472_0" index="0" disallow="pedestrian tram rail_urban rail rail_electric rail_fast ship" speed="36.11" length="56.76" width="3.50" customShape="1" shape="-602.12,-320.93 -568.30,-339.76 -552.53,-348.54"/>
    </edge>
    <edge id="130221" from="22" to="5" priority="3" type="highway.residential" spreadType="center" length="18.83">
        <lane id="130221_0" index="0" disallow="pedestrian tram rail_urban rail rail_electric rail_fast ship" speed="36.11" length="18.83" width="3.50" customShape="1" shape="-602.08,-314.07 -601.92,-313.98 -596.26,-311.20 -585.55,-306.45 -584.97,-306.21"/>
        <lane id="130221_1" index="1" disallow="pedestrian tram rail_urban rail rail_electric rail_fast ship" speed="36.11" length="19.18" width="3.50" customShape="1" shape="-603.75,-311.00 -603.64,-310.94 -603.54,-310.88 -597.74,-308.03 -586.93,-303.24 -586.33,-302.98"/>
    </edge>
    <edge id="130391" from="13" to="11" priority="3" type="highway.residential" spreadType="center" length="17.83">
        <lane id="130391_0" index="0" disallow="pedestrian tram rail_urban rail rail_electric rail_fast ship" speed="36.11" length="17.83" width="3.50" customShape="1" shape="-657.19,-258.94 -650.53,-267.93 -646.36,-273.10"/>
    </edge>
    <edge id="130908" from="22" to="9" priority="3" type="highway.residential" spreadType="center" length="43.62" shape="-608.48,-318.64 -665.53,-323.44">
        <lane id="130908_0" index="0" disallow="pedestrian tram rail_urban rail rail_electric rail_fast ship" speed="36.11" length="43.68" width="3.50" customShape="1" shape="-621.52,-313.12 -621.65,-313.15 -621.77,-313.17 -630.61,-314.84 -639.45,-316.51 -639.57,-316.54 -639.69,-316.56 -652.78,-319.14 -664.40,-321.43"/>
        <lane id="130908_1" index="1" disallow="pedestrian tram rail_urban rail rail_electric rail_fast ship" speed="36.11" length="43.62" width="3.50" customShape="1" shape="-620.90,-316.57 -621.03,-316.59 -621.15,-316.61 -629.96,-318.28 -638.77,-319.94 -638.89,-319.97 -639.02,-319.99 -652.11,-322.58 -663.72,-324.87"/>
    </edge>

    <junction id="10" type="dead_end" x="-712.52" y="-332.71" incLanes="126244_0 126244_1" intLanes="" shape="-713.20,-329.28 -711.84,-336.15" rightOfWay="edgePriority"/>
    <junction id="11" type="priority" x="-645.41" y="-274.25" incLanes="130391_0" intLanes=":11_0_0" shape="-643.11,-274.24 -645.76,-276.53 -647.69,-274.24 -645.04,-271.95" rightOfWay="edgePriority">
        <request index="0" response="0" foes="0" cont="0"/>
    </junction>
    <junction id="13" type="dead_end" x="-657.19" y="-258.94" incLanes="" intLanes="" shape="-655.78,-257.90 -658.59,-259.98" rightOfWay="edgePriority"/>
    <junction id="14" type="priority" x="-616.94" y="-257.24" incLanes="125753_0" intLanes=":14_0_0" shape="-617.70,-255.07 -614.67,-256.82 -616.21,-259.42 -619.21,-257.62" rightOfWay="edgePriority">
        <request index="0" response="0" foes="0" cont="0"/>
    </junction>
    <junction id="16" type="dead_end" x="-601.99" y="-231.52" incLanes="" intLanes="" shape="-600.48,-232.40 -603.51,-230.64" rightOfWay="edgePriority"/>
    <junction id="18" type="priority" x="-664.18" y="-330.31" incLanes="126241_0 126241_1" intLanes=":18_0_0 :18_0_1" shape="-663.39,-326.59 -662.03,-333.45 -664.97,-334.03 -666.33,-327.17" rightOfWay="edgePriority">
        <request index="0" response="00" foes="00" cont="0"/>
        <request index="1" response="00" foes="00" cont="0"/>
    </junction>
    <junction id="19" type="dead_end" x="-711.16" y="-339.58" incLanes="" intLanes="" shape="-711.84,-336.15 -710.48,-343.01" rightOfWay="edgePriority"/>
    <junction id="22" type="priority" x="-608.40" y="-322.14" incLanes="126113_0 125233_0 125233_1 125115_0" intLanes=":22_0_0 :22_1_0 :22_2_0 :22_3_0 :22_4_0 :22_5_0 :22_6_0 :22_7_0" shape="-604.54,-309.44 -601.22,-315.60 -602.80,-316.85 -603.00,-317.48 -602.81,-318.12 -602.23,-318.76 -601.27,-319.41 -602.97,-322.46 -605.31,-321.79 -605.96,-322.22 -606.26,-323.15 -606.22,-324.59 -605.83,-326.54 -609.22,-327.41 -610.80,-325.44 -612.27,-324.92 -614.21,-324.70 -616.60,-324.80 -619.45,-325.20 -621.81,-311.40 -619.74,-310.66 -619.28,-310.10 -619.20,-309.41 -619.50,-308.60 -620.19,-307.66 -617.56,-305.36 -615.37,-307.56 -613.18,-309.15 -611.00,-310.13 -608.82,-310.50 -606.65,-310.25">
        <request index="0" response="00011100" foes="01011100" cont="0"/>
        <request index="1" response="00011100" foes="00011100" cont="0"/>
        <request index="2" response="00000000" foes="01000011" cont="0"/>
        <request index="3" response="00000000" foes="11000011" cont="0"/>
        <request index="4" response="00000000" foes="11000011" cont="0"/>
        <request index="5" response="00000000" foes="00000000" cont="0"/>
        <request index="6" response="00011101" foes="00011101" cont="0"/>
        <request index="7" response="00011000" foes="00011000" cont="0"/>
    </junction>
    <junction id="23" type="priority" x="-633.86" y="-280.72" incLanes="125755_0 125363_0" intLanes=":23_0_0 :23_1_0" shape="-634.68,-281.80 -631.78,-283.76 -632.46,-285.05 -632.61,-285.62 -632.63,-286.14 -632.52,-286.62 -632.28,-287.04 -635.05,-289.17 -639.15,-284.19 -636.50,-281.90 -635.86,-282.40 -635.55,-282.44 -635.25,-282.36 -634.96,-282.14">
        <request index="0" response="10" foes="10" cont="0"/>
        <request index="1" response="00" foes="01" cont="0"/>
    </junction>
    <junction id="3" type="dead_end" x="-552.53" y="-348.54" incLanes="126472_0" intLanes="" shape="-553.38,-350.07 -551.68,-347.01" rightOfWay="edgePriority"/>
    <junction id="5" type="priority" x="-584.27" y="-304.01" incLanes="130221_0 130221_1" intLanes=":5_0_0 :5_0_1" shape="-584.24,-300.20 -581.52,-306.65 -584.28,-307.82 -587.02,-301.37" rightOfWay="edgePriority">
        <request index="0" response="00" foes="00" cont="0"/>
        <request index="1" response="00" foes="00" cont="0"/>
    </junction>
    <junction id="6" type="dead_end" x="-541.67" y="-286.21" incLanes="125969_0 125969_1" intLanes="" shape="-540.35,-289.45 -542.98,-282.97" rightOfWay="edgePriority"/>
    <junction id="7" type="dead_end" x="-591.51" y="-389.77" incLanes="" intLanes="" shape="-593.21,-390.20 -589.81,-389.34" rightOfWay="edgePriority"/>
    <junction id="9" type="priority" x="-665.53" y="-323.44" incLanes="130908_0 130908_1" intLanes=":9_0_0 :9_0_1" shape="-664.74,-319.72 -663.39,-326.59 -666.33,-327.17 -667.68,-320.30" rightOfWay="edgePriority">
        <request index="0" response="00" foes="00" cont="0"/>
        <request index="1" response="00" foes="00" cont="0"/>
    </junction>

    <connection from="125115" to="130908" fromLane="0" toLane="0" contPos="-4.00" shape="-619.80,-305.44 -618.47,-307.17 -617.77,-308.44 -617.53,-309.12 -617.41,-309.84 -617.46,-310.56 -617.73,-311.22 -618.20,-311.78 -618.78,-312.21 -620.11,-312.78 -621.52,-313.12" via=":22_5_0" dir="r" state="M"/>
    <connection from="125115" to="126472" fromLane="0" toLane="0" contPos="-4.00" shape="-619.80,-305.44 -617.01,-308.38 -613.25,-311.78 -608.48,-315.56 -602.28,-319.95 -594.59,-324.86 -585.40,-330.24 -584.07,-330.98" via=":22_6_0" dir="s" state="m"/>
    <connection from="125115" to="130221" fromLane="0" toLane="1" contPos="-4.00" shape="-619.80,-305.44 -617.47,-307.87 -615.31,-309.65 -613.41,-310.84 -611.35,-311.72 -609.71,-312.11 -608.04,-312.20 -606.37,-311.99 -604.77,-311.48 -603.75,-311.00" via=":22_7_0" dir="l" state="m"/>
    <connection from="125233" to="126472" fromLane="0" toLane="0" contPos="-4.00" shape="-619.62,-323.45 -616.09,-322.97 -611.97,-322.79 -607.85,-323.00 -603.77,-323.57 -599.75,-324.48 -595.31,-325.85 -590.53,-327.75 -585.89,-330.00 -584.07,-330.98" via=":22_2_0" dir="s" state="M"/>
    <connection from="125233" to="130221" fromLane="0" toLane="0" contPos="-4.00" shape="-619.62,-323.45 -617.26,-322.86 -615.04,-322.02 -612.00,-320.45 -608.35,-318.08 -603.94,-315.14 -602.08,-314.07" via=":22_3_0" dir="L" state="M"/>
    <connection from="125233" to="130221" fromLane="1" toLane="1" contPos="-4.00" shape="-620.28,-320.01 -618.24,-319.51 -616.27,-318.77 -613.47,-317.31 -609.95,-314.99 -605.58,-312.05 -603.75,-311.00" via=":22_4_0" dir="L" state="M"/>
    <connection from="125363" to="125115" fromLane="0" toLane="0" contPos="-4.00" shape="-645.25,-274.44 -635.61,-285.87 -629.20,-293.93" via=":23_1_0" dir="s" state="M"/>
    <connection from="125753" to="125755" fromLane="0" toLane="0" contPos="-4.00" via=":14_0_0" dir="s" state="M"/>
    <connection from="125755" to="125115" fromLane="0" toLane="0" contPos="-4.00" shape="-627.14,-273.79 -629.17,-277.13 -630.37,-279.65 -631.27,-282.29 -631.71,-284.48 -631.83,-286.71 -631.66,-288.37 -631.27,-290.00 -630.66,-291.56 -629.53,-293.48 -629.20,-293.93" via=":23_0_0" dir="l" state="m"/>
    <connection from="126113" to="130221" fromLane="0" toLane="0" contPos="-4.00" shape="-602.78,-345.57 -604.46,-338.29 -605.48,-332.52 -606.00,-327.74 -606.11,-324.01 -605.86,-320.82 -605.42,-318.74 -604.87,-317.23 -604.08,-315.85 -602.99,-314.68 -602.08,-314.07" via=":22_0_0" dir="R" state="m"/>
    <connection from="126113" to="130908" fromLane="0" toLane="1" contPos="-4.00" shape="-602.78,-345.57 -604.84,-338.21 -606.74,-332.52 -608.59,-327.96 -610.28,-324.54 -612.00,-321.75 -613.70,-319.62 -615.30,-318.14 -616.67,-317.25 -618.20,-316.66 -619.82,-316.47 -620.90,-316.57" via=":22_1_0" dir="l" state="m"/>
    <connection from="126241" to="125233" fromLane="0" toLane="0" contPos="-4.00" via=":18_0_0" dir="s" state="M"/>
    <connection from="126241" to="125233" fromLane="1" toLane="1" contPos="-4.00" via=":18_0_1" dir="s" state="M"/>
    <connection from="130221" to="125969" fromLane="0" toLane="0" contPos="-4.00" via=":5_0_0" dir="s" state="M"/>
    <connection from="130221" to="125969" fromLane="1" toLane="1" contPos="-4.00" via=":5_0_1" dir="s" state="M"/>
    <connection from="130391" to="125363" fromLane="0" toLane="0" contPos="-4.00" via=":11_0_0" dir="s" state="M"/>
    <connection from="130908" to="126244" fromLane="0" toLane="0" contPos="-4.00" via=":9_0_0" dir="s" state="M"/>
    <connection from="130908" to="126244" fromLane="1" toLane="1" contPos="-4.00" via=":9_0_1" dir="s" state="M"/>

    <connection from=":11_0" to="125363" fromLane="0" toLane="0" dir="s" state="M"/>
    <connection from=":14_0" to="125755" fromLane="0" toLane="0" dir="s" state="M"/>
    <connection from=":18_0" to="125233" fromLane="0" toLane="0" dir="s" state="M"/>
    <connection from=":18_0" to="125233" fromLane="1" toLane="1" dir="s" state="M"/>
    <connection from=":22_0" to="130221" fromLane="0" toLane="0" dir="R" state="M"/>
    <connection from=":22_1" to="130908" fromLane="0" toLane="1" dir="l" state="M"/>
    <connection from=":22_2" to="126472" fromLane="0" toLane="0" dir="s" state="M"/>
    <connection from=":22_3" to="130221" fromLane="0" toLane="0" dir="L" state="M"/>
    <connection from=":22_4" to="130221" fromLane="0" toLane="1" dir="L" state="M"/>
    <connection from=":22_5" to="130908" fromLane="0" toLane="0" dir="r" state="M"/>
    <connection from=":22_6" to="126472" fromLane="0" toLane="0" dir="s" state="M"/>
    <connection from=":22_7" to="130221" fromLane="0" toLane="1" dir="l" state="M"/>
    <connection from=":23_0" to="125115" fromLane="0" toLane="0" dir="l" state="M"/>
    <connection from=":23_1" to="125115" fromLane="0" toLane="0" dir="s" state="M"/>
    <connection from=":5_0" to="125969" fromLane="0" toLane="0" dir="s" state="M"/>
    <connection from=":5_0" to="125969" fromLane="1" toLane="1" dir="s" state="M"/>
    <connection from=":9_0" to="126244" fromLane="0" toLane="0" dir="s" state="M"/>
    <connection from=":9_0" to="126244" fromLane="1" toLane="1" dir="s" state="M"/>

</net>