<routes>
	<vehicle depart="0.1" departLane="0" departPos="5.66555678346667" departSpeed="3.5851806" id="327" type="bicycle">
		<route edges=":53_3 517 538"/>
	</vehicle>
	<vehicle depart="0.1" departLane="0" departPos="4.9952257413181265" departSpeed="3.4774849" id="337" type="bicycle">
		<route edges=":53_3 517 538"/>
	</vehicle>
	<vehicle depart="0.1" departLane="0" departPos="1.0" departSpeed="5.0443843" id="384" type="bicycle">
		<route edges=":58_5 518 562"/>
	</vehicle>
	<vehicle depart="0.1" departLane="0" departPos="29.57797039446022" departSpeed="2.7447404" id="347" type="bus">
		<route edges="22 19"/>
	</vehicle>
	<vehicle depart="0.1" departLane="0" departPos="51.38113883217557" departSpeed="0.38065034" id="355" type="bus">
		<route edges="518 562"/>
	</vehicle>
	<vehicle depart="0.1" departLane="0" departPos="89.14443440177519" departSpeed="11.083656" id="367" type="bus">
		<route edges="556 578"/>
	</vehicle>
	<vehicle depart="0.1" departLane="0" departPos="4.712543586090596" departSpeed="3.5082913" id="31" type="passenger">
		<route edges=":57_4 556 578"/>
	</vehicle>
	<vehicle depart="0.1" departLane="0" departPos="58.85878416789552" departSpeed="0.030429542" id="37" type="passenger">
		<route edges="518 562"/>
	</vehicle>
	<vehicle depart="0.1" departLane="0" departPos="154.62730199926733" departSpeed="0.99747303" id="310" type="passenger">
		<route edges="556 578 19"/>
	</vehicle>
	<vehicle depart="0.1" departLane="0" departPos="58.00083042643904" departSpeed="1.6032544" id="311" type="passenger">
		<route edges="25 626"/>
	</vehicle>
	<vehicle depart="0.1" departLane="0" departPos="38.60227636981939" departSpeed="0.0" id="313" type="passenger">
		<route edges="20 579"/>
	</vehicle>
	<vehicle depart="0.1" departLane="0" departPos="49.07547773150527" departSpeed="1.6597497" id="316" type="passenger">
		<route edges="25 626"/>
	</vehicle>
	<vehicle depart="0.1" departLane="0" departPos="85.77324446734846" departSpeed="16.352531" id="318" type="passenger">
		<route edges="555 415"/>
	</vehicle>
	<vehicle depart="0.1" departLane="0" departPos="79.96969810581535" departSpeed="0.0" id="320" type="passenger">
		<route edges="518 562"/>
	</vehicle>
	<vehicle depart="0.1" departLane="0" departPos="13.493995856207883" departSpeed="3.2202604" id="321" type="passenger">
		<route edges=":55_0 22 19"/>
	</vehicle>
	<vehicle depart="0.1" departLane="0" departPos="13.250211167194449" departSpeed="5.7212823" id="322" type="passenger">
		<route edges=":55_5 26"/>
	</vehicle>
	<vehicle depart="0.1" departLane="0" departPos="162.8203343927216" departSpeed="1.6239516" id="323" type="passenger">
		<route edges="556 559 517 538"/>
	</vehicle>
	<vehicle depart="0.1" departLane="0" departPos="146.5012192935971" departSpeed="0.76728526" id="328" type="passenger">
		<route edges="556 559 562"/>
	</vehicle>
	<vehicle depart="0.1" departLane="0" departPos="21.263797864702767" departSpeed="11.132699" id="329" type="passenger">
		<route edges="555 415"/>
	</vehicle>
	<vehicle depart="0.1" departLane="0" departPos="5.210981707841404" departSpeed="4.8556865" id="332" type="passenger">
		<route edges=":56_0 579 559"/>
	</vehicle>
	<vehicle depart="0.1" departLane="0" departPos="137.11364479025755" departSpeed="1.8015457" id="333" type="passenger">
		<route edges="556 559"/>
	</vehicle>
	<vehicle depart="0.1" departLane="0" departPos="72.89624840865737" departSpeed="8.0874039e-05" id="334" type="passenger">
		<route edges="518 562"/>
	</vehicle>
	<vehicle depart="0.1" departLane="0" departPos="31.502268360914123" departSpeed="0.0" id="336" type="passenger">
		<route edges="20 579"/>
	</vehicle>
	<vehicle depart="0.1" departLane="0" departPos="38.832592315934924" departSpeed="3.0127293" id="338" type="passenger">
		<route edges="22 19"/>
	</vehicle>
	<vehicle depart="0.1" departLane="0" departPos="65.89102185183673" departSpeed="0.0012983173" id="341" type="passenger">
		<route edges="518 562"/>
	</vehicle>
	<vehicle depart="0.1" departLane="0" departPos="125.03133529923406" departSpeed="3.9163024" id="343" type="passenger">
		<route edges="556 578"/>
	</vehicle>
	<vehicle depart="0.1" departLane="0" departPos="68.3685945276422" departSpeed="2.7775956" id="345" type="passenger">
		<route edges="561 558 555"/>
	</vehicle>
	<vehicle depart="0.1" departLane="0" departPos="20.146833369055862" departSpeed="1.9838483e-05" id="346" type="passenger">
		<route edges="20 579"/>
	</vehicle>
	<vehicle depart="0.1" departLane="0" departPos="59.551056550521025" departSpeed="2.2167972" id="351" type="passenger">
		<route edges="561 517"/>
	</vehicle>
	<vehicle depart="0.1" departLane="0" departPos="14.464829898805917" departSpeed="2.3621885" id="353" type="passenger">
		<route edges="22 19"/>
	</vehicle>
	<vehicle depart="0.1" departLane="0" departPos="24.519915043286034" departSpeed="0.48477446" id="354" type="passenger">
		<route edges="25 626"/>
	</vehicle>
	<vehicle depart="0.1" departLane="0" departPos="50.90838107568751" departSpeed="1.5534218" id="356" type="passenger">
		<route edges="561 517"/>
	</vehicle>
	<vehicle depart="0.1" departLane="0" departPos="5.694297712766232" departSpeed="2.4524676" id="358" type="passenger">
		<route edges="22 19"/>
	</vehicle>
	<vehicle depart="0.1" departLane="0" departPos="16.753636080228574" departSpeed="0.23696848" id="360" type="passenger">
		<route edges="25 626"/>
	</vehicle>
	<vehicle depart="0.1" departLane="0" departPos="42.6960435742979" departSpeed="1.0970585" id="362" type="passenger">
		<route edges="561 517"/>
	</vehicle>
	<vehicle depart="0.1" departLane="0" departPos="71.29455532085673" departSpeed="2.0012133" id="363" type="passenger">
		<route edges="625 22"/>
	</vehicle>
	<vehicle depart="0.1" departLane="0" departPos="61.212628535906205" departSpeed="11.896254" id="370" type="passenger">
		<route edges="556 578"/>
	</vehicle>
	<vehicle depart="0.1" departLane="0" departPos="62.61064093763047" departSpeed="1.8017066" id="372" type="passenger">
		<route edges="625 22"/>
	</vehicle>
	<vehicle depart="0.1" departLane="0" departPos="38.785346687744244" departSpeed="12.930623" id="373" type="passenger">
		<route edges="556 578"/>
	</vehicle>
	<vehicle depart="0.1" departLane="0" departPos="9.516931928849296" departSpeed="0.12111258" id="374" type="passenger">
		<route edges="25 626"/>
	</vehicle>
	<vehicle depart="0.1" departLane="0" departPos="51.38242100659913" departSpeed="3.5549132" id="378" type="passenger">
		<route edges="625 22"/>
	</vehicle>
	<vehicle depart="0.1" departLane="0" departPos="37.34755164562991" departSpeed="5.6042248" id="383" type="passenger">
		<route edges="625 22"/>
	</vehicle>
	<vehicle depart="0.1" departLane="0" departPos="30.160931189258573" departSpeed="8.1389574" id="386" type="passenger">
		<route edges="553 556 578"/>
	</vehicle>
	<vehicle depart="0.1" departLane="0" departPos="22.012634461943215" departSpeed="6.887614" id="387" type="passenger">
		<route edges="625 22"/>
	</vehicle>
	<vehicle depart="0.1" departLane="0" departPos="15.113584699005045" departSpeed="5.4507281" id="388" type="passenger">
		<route edges="553 556 578"/>
	</vehicle>
	<vehicle depart="0.1" departLane="0" departPos="9.955670975221544" departSpeed="3.8275826" id="391" type="passenger">
		<route edges="625 22"/>
	</vehicle>
	<vehicle depart="0.1" departLane="0" departPos="24.603914991317264" departSpeed="0.0" id="339" type="motorcycle">
		<route edges="20 579"/>
	</vehicle>
	<vehicle depart="0.1" departLane="0" departPos="29.774847007693392" departSpeed="0.87131962" id="344" type="motorcycle">
		<route edges="25 626"/>
	</vehicle>
	<vehicle depart="0.1" departLane="0" departPos="13.043105814275304" departSpeed="0.00014638513" id="352" type="motorcycle">
		<route edges="20 579"/>
	</vehicle>
	<vehicle depart="0.1" departLane="0" departPos="174.59191855814143" departSpeed="2.4846482" id="30" type="truck">
		<route edges="556 578 19"/>
	</vehicle>
	<vehicle depart="0.1" departLane="0" departPos="69.40725454279757" departSpeed="0.4763559" id="324" type="truck">
		<route edges="25 626"/>
	</vehicle>
	<vehicle depart="0.1" departLane="0" departPos="40.32455526437957" departSpeed="1.3148819" id="335" type="truck">
		<route edges="25 626"/>
	</vehicle>
</routes>
