<routes>
	<vehicle depart="0.1" departLane="0" departPos="16.292387462447667" departSpeed="10.341715" id="318" type="passenger">
		<route edges=":90_2 262 300"/>
	</vehicle>
	<vehicle depart="0.1" departLane="0" departPos="32.4407179554195" departSpeed="3.9268472" id="339" type="passenger">
		<route edges="1505 262"/>
	</vehicle>
	<vehicle depart="0.1" departLane="0" departPos="22.776645684710214" departSpeed="3.3698987" id="345" type="passenger">
		<route edges="1505 262"/>
	</vehicle>
	<vehicle depart="0.1" departLane="0" departPos="11.385506958525655" departSpeed="2.5221499" id="349" type="passenger">
		<route edges="1505 262"/>
	</vehicle>
	<vehicle depart="0.1" departLane="0" departPos="2.5" departSpeed="1.9087486" id="360" type="passenger">
		<route edges="1505 262"/>
	</vehicle>
	<vehicle depart="0.1" departLane="0" departPos="29.978425257382824" departSpeed="11.791749" id="33" type="motorcycle">
		<route edges=":90_3 266 1430"/>
	</vehicle>
	<vehicle depart="0.1" departLane="0" departPos="47.695849421196606" departSpeed="4.3943208" id="321" type="motorcycle">
		<route edges="1505 262 300"/>
	</vehicle>
</routes>
