<routes>
	<vehicle depart="0.1" departLane="0" departPos="71.74119424119823" departSpeed="4.4146316" id="1" type="passenger">
		<route edges="50201 50213 50197"/>
	</vehicle>
	<vehicle depart="0.1" departLane="0" departPos="113.6677833898262" departSpeed="1.9080542" id="2" type="passenger">
		<route edges="50195 50209 50203"/>
	</vehicle>
	<vehicle depart="0.1" departLane="0" departPos="142.40203034010617" departSpeed="1.7862132" id="4" type="passenger">
		<route edges="50205 50207 50197"/>
	</vehicle>
	<vehicle depart="0.1" departLane="0" departPos="150.40203907136777" departSpeed="3.2064817" id="5" type="passenger">
		<route edges="50205 50217 50199"/>
	</vehicle>
	<vehicle depart="0.1" departLane="0" departPos="71.74119424119823" departSpeed="0.48392751" id="7" type="passenger">
		<route edges="50201 50213 50197"/>
	</vehicle>
</routes>
