<!-- generated on 2020-12-18 15:57:56.078368 by ipykernel_launcher.py v1_2_0+5214-53edc58fcd
-->
<nodes>
	<node id="1" type="from" x="24.216240000000003" y="40.9987"/>
	<node id="2" type="to" x="20.749249999999996" y="34.013259999999995"/>
	<node id="3" type="to" x="15.575091666666667" y="27.097683333333336"/>
	<node id="4" type="to" x="4.578875" y="5.001708333333332"/>
	<node id="5" type="to" x="23.781725" y="-34.891400000000004"/>
	<node id="6" type="to" x="36.618716666666664" y="-43.22448333333333"/>
	<node id="7" type="to" x="-2.7532" y="-6.5202333333333335"/>
	<node id="8" type="to" x="-10.0795" y="-21.414416666666664"/>
	<node id="9" type="to" x="-15.461399999999998" y="-32.35366666666667"/>
	<node id="10" type="to" x="-32.44393333333334" y="-70.88226666666667"/>
	<node id="11" type="to" x="-15.7047" y="3.33035"/>
	<node id="12" type="to" x="-36.41758333333333" y="9.839866666666666"/>
	<node id="13" type="from" x="-41.48023333333334" y="-0.1685166666666668"/>
	<node id="14" type="to" x="-21.156299999999998" y="-10.273566666666666"/>
	<node id="15" type="to" x="14.09695" y="0.2003"/>
	<node id="16" type="to" x="27.797600000000003" y="20.989716666666666"/>
	<node id="17" type="to" x="31.61028333333333" y="28.57903333333333"/>
	<node id="18" type="to" x="35.013233333333325" y="35.45591666666667"/>
	<node id="19" type="to" x="-12.81245" y="-16.30055"/>
	<node id="20" type="to" x="9.294425" y="-27.684675"/>
	<node id="21" type="from" x="41.92095" y="-32.432925"/>
	<node id="22" type="to" x="31.540675" y="-27.3584"/>
	<node id="23" type="to" x="26.395866666666667" y="-22.8489"/>
	<node id="24" type="to" x="20.452616666666664" y="-19.918616666666665"/>
	<node id="25" type="to" x="13.723075000000001" y="-18.48845"/>
	<node id="26" type="to" x="-8.3643" y="-7.48255"/>
	<node id="27" type="from" x="-20.06436" y="-76.98204000000001"/>
	<node id="28" type="to" x="-1.4509999999999998" y="-39.72056"/>
	<node id="29" type="to" x="3.6984833333333333" y="-28.64663333333333"/>
	<node id="30" type="to" x="11.0585" y="-13.271133333333333"/>
</nodes>
