<routes>
	<vehicle depart="0.1" departLane="4" departPos="24.389194289319505" departSpeed="0.0" id="1456" type="passenger">
		<route edges="3450 3664 3495"/>
	</vehicle>
	<vehicle depart="0.1" departLane="4" departPos="17.081373245005796" departSpeed="0.0" id="1465" type="passenger">
		<route edges="3450 3664 3495"/>
	</vehicle>
	<vehicle depart="0.1" departLane="4" departPos="0" departSpeed="0.0" id="1468" type="passenger">
		<route edges="3450 3664 3495"/>
	</vehicle>
	<vehicle depart="0.1" departLane="2" departPos="37.80427591352448" departSpeed="7.2664" id="1521" type="passenger">
		<route edges="3542"/>
	</vehicle>
	<vehicle depart="0.1" departLane="4" departPos="0" departSpeed="0.0" id="1530" type="passenger">
		<route edges="3450 3664 3495"/>
	</vehicle>
	<vehicle depart="0.1" departLane="1" departPos="34.80156748607076" departSpeed="9.4701" id="1537" type="passenger">
		<route edges="3542"/>
	</vehicle>
	<vehicle depart="0.1" departLane="5" departPos="24.13083579913595" departSpeed="0.0" id="1538" type="passenger">
		<route edges="3450 3664 3495"/>
	</vehicle>
	<vehicle depart="0.1" departLane="4" departPos="4.5505451352655255" departSpeed="0.0" id="1544" type="passenger">
		<route edges="3438 3450 3664 3495"/>
	</vehicle>
	<vehicle depart="0.1" departLane="3" departPos="5.3497493450046845" departSpeed="0.0" id="1545" type="passenger">
		<route edges="3431 3438 3450 3664 3495"/>
	</vehicle>
	<vehicle depart="0.1" departLane="0" departPos="0" departSpeed="11.5245" id="1547" type="passenger">
		<route edges="3456 3462 3470"/>
	</vehicle>
	<vehicle depart="0.1" departLane="0" departPos="0" departSpeed="10.5308" id="1548" type="passenger">
		<route edges="3616 3456 3462 3470"/>
	</vehicle>
	<vehicle depart="0.1" departLane="0" departPos="0" departSpeed="0.0" id="1549" type="passenger">
		<route edges="3620 3662 3640 3487"/>
	</vehicle>
	<vehicle depart="0.1" departLane="1" departPos="41.56189728917716" departSpeed="8.3729" id="1560" type="passenger">
		<route edges="3573 3632 3652 3616 3456 3462 3470"/>
	</vehicle>
	<vehicle depart="0.1" departLane="5" departPos="16.564776870865057" departSpeed="0.0" id="1565" type="passenger">
		<route edges="3450 3664 3495"/>
	</vehicle>
	<vehicle depart="0.1" departLane="0" departPos="0" departSpeed="10.2535" id="1567" type="passenger">
		<route edges="3542"/>
	</vehicle>
	<vehicle depart="0.1" departLane="1" departPos="21.718668734038815" departSpeed="8.2479" id="1568" type="passenger">
		<route edges="3573 3632 3652 3616 3456 3462 3470"/>
	</vehicle>
	<vehicle depart="0.1" departLane="0" departPos="0" departSpeed="9.8877" id="1570" type="passenger">
		<route edges="3646 3626 3600 3626 3600 3542"/>
	</vehicle>
	<vehicle depart="0.1" departLane="2" departPos="0" departSpeed="10.54" id="1571" type="passenger">
		<route edges="3626 3542"/>
	</vehicle>
	<vehicle depart="0.1" departLane="2" departPos="26.508311582098898" departSpeed="8.5832" id="1573" type="passenger">
		<route edges="3542"/>
	</vehicle>
	<vehicle depart="0.1" departLane="1" departPos="0" departSpeed="10.6619" id="1574" type="passenger">
		<route edges="3542"/>
	</vehicle>
	<vehicle depart="0.1" departLane="1" departPos="18.7758957115404" departSpeed="10.5705" id="1577" type="passenger">
		<route edges="3450 3610 3646 3626 3600 3542"/>
	</vehicle>
	<vehicle depart="0.1" departLane="2" departPos="13.55388243428797" departSpeed="10.2169" id="1578" type="passenger">
		<route edges="3610 3646 3626 3542"/>
	</vehicle>
	<vehicle depart="0.1" departLane="1" departPos="12.192422312649775" departSpeed="8.2387" id="1579" type="passenger">
		<route edges="3626 3542"/>
	</vehicle>
	<vehicle depart="0.1" departLane="2" departPos="0" departSpeed="10.0858" id="1580" type="passenger">
		<route edges="3542"/>
	</vehicle>
	<vehicle depart="0.1" departLane="1" departPos="0" departSpeed="11.8019" id="1584" type="passenger">
		<route edges="3438 3450 3610 3646 3626 3542"/>
	</vehicle>
	<vehicle depart="0.1" departLane="0" departPos="0" departSpeed="11.43" id="1588" type="passenger">
		<route edges="3626 3600 3626 3542"/>
	</vehicle>
	<vehicle depart="0.1" departLane="3" departPos="4.3196031736983045" departSpeed="11.8842" id="1589" type="passenger">
		<route edges="3438 3450 3610 3646 3626 3542"/>
	</vehicle>
	<vehicle depart="0.1" departLane="3" departPos="20.52189145860441" departSpeed="9.7292" id="1594" type="passenger">
		<route edges="3450 3610 3646 3626 3542"/>
	</vehicle>
	<vehicle depart="0.1" departLane="5" departPos="0" departSpeed="7.6657" id="1595" type="passenger">
		<route edges="3438 3450 3664 3495"/>
	</vehicle>
	<vehicle depart="0.1" departLane="2" departPos="0" departSpeed="11.8293" id="1598" type="passenger">
		<route edges="3450 3610 3646 3646 3626 3542"/>
	</vehicle>
	<vehicle depart="0.1" departLane="0" departPos="0" departSpeed="0.14021" id="1600" type="passenger">
		<route edges="3680 3495"/>
	</vehicle>
	<vehicle depart="0.1" departLane="0" departPos="0" departSpeed="0.0" id="1601" type="passenger">
		<route edges="3602 3456 3462 3470"/>
	</vehicle>
	<vehicle depart="0.1" departLane="0" departPos="41.481831758972135" departSpeed="0.30175" id="1602" type="passenger">
		<route edges="3573 3680 3495"/>
	</vehicle>
	<vehicle depart="0.1" departLane="1" departPos="0" departSpeed="7.617" id="1605" type="passenger">
		<route edges="3573 3680 3495"/>
	</vehicle>
	<vehicle depart="0.1" departLane="0" departPos="28.527266606113074" departSpeed="0.0" id="1606" type="passenger">
		<route edges="3573 3680 3495"/>
	</vehicle>
	<vehicle depart="0.1" departLane="0" departPos="12.222592911898852" departSpeed="8.2509" id="11430" type="passenger">
		<route edges="3632 3652 3616 3456 3462 3470"/>
	</vehicle>
</routes>
