<!-- generated on Tue Feb  9 22:10:26 2021 by Eclipse SUMO netconvert Version 1.8.0
<configuration xmlns:xsi="http://www.w3.org/2001/XMLSchema-instance" xsi:noNamespaceSchemaLocation="http://sumo.dlr.de/xsd/netconvertConfiguration.xsd">

    <input>
        <node-files value="./converted_scenarios/scenario-factory/DEU_Guetersloh-25_1_I-1-1/DEU_Guetersloh-25_1_I-1-1.nod.xml"/>
        <edge-files value="./converted_scenarios/scenario-factory/DEU_Guetersloh-25_1_I-1-1/DEU_Guetersloh-25_1_I-1-1.edg.xml"/>
        <connection-files value="./converted_scenarios/scenario-factory/DEU_Guetersloh-25_1_I-1-1/DEU_Guetersloh-25_1_I-1-1.con.xml"/>
        <tllogic-files value="./converted_scenarios/scenario-factory/DEU_Guetersloh-25_1_I-1-1/DEU_Guetersloh-25_1_I-1-1.tll.xml"/>
        <type-files value="/home/zen/commonroad-interactive-benchmarks/install/commonroad-map-tool/crmapconverter/sumo_map/templates/DEU.typ.xml"/>
    </input>

    <output>
        <output-file value="./converted_scenarios/scenario-factory/DEU_Guetersloh-25_1_I-1-1/DEU_Guetersloh-25_1_I-1-1.net.xml"/>
    </output>

    <processing>
        <geometry.remove.keep-edges.explicit value="true"/>
        <geometry.avoid-overlap value="true"/>
        <offset.disable-normalization value="true"/>
    </processing>

    <junctions>
        <no-turnarounds value="true"/>
        <junctions.internal-link-detail value="20"/>
    </junctions>

    <report>
        <aggregate-warnings value="5"/>
    </report>

    <random_number>
        <seed value="1234"/>
    </random_number>

</configuration>
--><net xmlns:xsi="http://www.w3.org/2001/XMLSchema-instance" version="1.6" junctionCornerDetail="5" junctionLinkDetail="20" limitTurnSpeed="5.50" xsi:noNamespaceSchemaLocation="http://sumo.dlr.de/xsd/net_file.xsd">

    <location netOffset="0.00,0.00" convBoundary="464.88,291.11,618.74,427.69" origBoundary="461.38,289.98,618.74,427.70" projParameter="!"/>

    <type id="highway.bridleway" priority="1" speed="2.78" allow="pedestrian" oneway="1" width="2.00"/>
    <type id="highway.bus_guideway" priority="1" speed="27.78" allow="bus" oneway="1"/>
    <type id="highway.cycleway" priority="1" speed="8.33" allow="bicycle" oneway="0" width="1.00"/>
    <type id="highway.footway" priority="1" speed="2.78" allow="pedestrian" oneway="1" width="2.00"/>
    <type id="highway.ford" priority="1" speed="2.78" allow="army" oneway="0"/>
    <type id="highway.living_street" priority="2" speed="2.78" disallow="tram rail_urban rail rail_electric rail_fast ship" oneway="0"/>
    <type id="highway.motorway" priority="14" speed="39.44" allow="private emergency authority army vip passenger hov taxi bus coach delivery truck trailer motorcycle evehicle custom1 custom2" oneway="1"/>
    <type id="highway.motorway_link" priority="9" speed="22.22" allow="private emergency authority army vip passenger hov taxi bus coach delivery truck trailer motorcycle evehicle custom1 custom2" oneway="1"/>
    <type id="highway.path" priority="1" speed="2.78" allow="pedestrian bicycle" oneway="0" width="2.00"/>
    <type id="highway.pedestrian" priority="1" speed="2.78" allow="pedestrian" oneway="1" width="2.00"/>
    <type id="highway.primary" priority="12" speed="27.78" disallow="pedestrian tram rail_urban rail rail_electric rail_fast ship" oneway="0"/>
    <type id="highway.primary_link" priority="7" speed="22.22" disallow="pedestrian tram rail_urban rail rail_electric rail_fast ship" oneway="0"/>
    <type id="highway.raceway" priority="15" speed="83.33" allow="vip" oneway="0"/>
    <type id="highway.residential" priority="3" speed="13.89" disallow="pedestrian tram rail_urban rail rail_electric rail_fast ship" oneway="0"/>
    <type id="highway.secondary" priority="11" speed="27.78" disallow="pedestrian tram rail_urban rail rail_electric rail_fast ship" oneway="0"/>
    <type id="highway.secondary_link" priority="6" speed="22.22" disallow="pedestrian tram rail_urban rail rail_electric rail_fast ship" oneway="0"/>
    <type id="highway.service" priority="1" speed="5.56" allow="pedestrian delivery bicycle" oneway="0"/>
    <type id="highway.stairs" priority="1" speed="1.39" allow="pedestrian" oneway="1" width="2.00"/>
    <type id="highway.step" priority="1" speed="1.39" allow="pedestrian" oneway="1" width="2.00"/>
    <type id="highway.steps" priority="1" speed="1.39" allow="pedestrian" oneway="1" width="2.00"/>
    <type id="highway.tertiary" priority="10" speed="22.22" disallow="pedestrian tram rail_urban rail rail_electric rail_fast ship" oneway="0"/>
    <type id="highway.tertiary_link" priority="5" speed="22.22" disallow="pedestrian tram rail_urban rail rail_electric rail_fast ship" oneway="0"/>
    <type id="highway.track" priority="1" speed="5.56" allow="pedestrian motorcycle moped bicycle" oneway="0"/>
    <type id="highway.trunk" priority="13" speed="27.78" disallow="pedestrian bicycle tram rail_urban rail rail_electric rail_fast ship" oneway="0"/>
    <type id="highway.trunk_link" priority="8" speed="22.22" disallow="pedestrian bicycle tram rail_urban rail rail_electric rail_fast ship" oneway="0"/>
    <type id="highway.unclassified" priority="4" speed="13.89" disallow="pedestrian tram rail_urban rail rail_electric rail_fast ship" oneway="0"/>
    <type id="highway.unsurfaced" priority="1" speed="8.33" disallow="tram rail_urban rail rail_electric rail_fast ship" oneway="0"/>
    <type id="railway.highspeed" priority="21" speed="69.44" allow="rail_fast" oneway="1"/>
    <type id="railway.light_rail" priority="19" speed="27.78" allow="rail_urban" oneway="1"/>
    <type id="railway.preserved" priority="16" speed="27.78" allow="rail" oneway="1"/>
    <type id="railway.rail" priority="20" speed="44.44" allow="rail" oneway="1"/>
    <type id="railway.subway" priority="18" speed="27.78" allow="rail_urban" oneway="1"/>
    <type id="railway.tram" priority="17" speed="13.89" allow="tram" oneway="1"/>

    <edge id=":12_0" function="internal">
        <lane id=":12_0_0" index="0" disallow="pedestrian tram rail_urban rail rail_electric rail_fast ship" speed="8.93" length="16.98" width="3.50" shape="571.50,320.63 568.63,318.61 566.08,317.18 563.38,316.09 561.12,315.52 558.79,315.30 557.05,315.39 555.85,315.61"/>
    </edge>
    <edge id=":12_1" function="internal">
        <lane id=":12_1_0" index="0" disallow="pedestrian tram rail_urban rail rail_electric rail_fast ship" speed="9.65" length="21.90" width="3.50" shape="566.39,299.32 565.89,300.25 565.30,301.94 564.99,303.70 565.00,305.48 565.32,307.24 565.92,308.92 567.04,311.02 568.45,312.95 570.48,315.13 573.17,317.49 573.63,317.85"/>
    </edge>
    <edge id=":12_2" function="internal">
        <lane id=":12_2_0" index="0" disallow="pedestrian tram rail_urban rail rail_electric rail_fast ship" speed="36.11" length="19.21" width="3.50" shape="566.04,299.03 557.37,309.06 553.48,313.56"/>
        <lane id=":12_2_1" index="1" disallow="pedestrian tram rail_urban rail rail_electric rail_fast ship" speed="36.11" length="19.16" width="3.50" shape="563.37,296.77 554.72,306.78 550.84,311.26"/>
    </edge>
    <edge id=":13_0" function="internal">
        <lane id=":13_0_0" index="0" disallow="pedestrian tram rail_urban rail rail_electric rail_fast ship" speed="36.11" length="7.41" width="3.50" shape="503.50,364.86 499.09,368.52 497.83,369.63"/>
        <lane id=":13_0_1" index="1" disallow="pedestrian tram rail_urban rail rail_electric rail_fast ship" speed="36.11" length="7.74" width="3.50" shape="501.26,362.17 496.76,365.91 495.35,367.16"/>
        <lane id=":13_0_2" index="2" disallow="pedestrian tram rail_urban rail rail_electric rail_fast ship" speed="36.11" length="8.09" width="3.50" shape="500.51,361.26 493.51,365.32"/>
    </edge>
    <edge id=":2_0" function="internal">
        <lane id=":2_0_0" index="0" disallow="pedestrian tram rail_urban rail rail_electric rail_fast ship" speed="36.11" length="2.82" width="3.50" shape="470.05,407.85 469.99,408.05 469.94,408.23 469.89,408.40 469.85,408.55 469.81,408.68 469.77,408.81 469.74,408.93 469.71,409.04 469.68,409.15 469.65,409.26 469.63,409.37 469.60,409.48 469.58,409.60 469.55,409.73 469.52,409.87 469.49,410.02 469.45,410.19 469.42,410.37 469.37,410.58"/>
        <lane id=":2_0_1" index="1" disallow="pedestrian tram rail_urban rail rail_electric rail_fast ship" speed="36.11" length="2.92" width="3.50" shape="466.68,406.92 466.62,407.13 466.56,407.32 466.51,407.49 466.47,407.65 466.43,407.79 466.39,407.92 466.36,408.04 466.32,408.16 466.29,408.27 466.27,408.38 466.24,408.50 466.21,408.61 466.18,408.74 466.16,408.87 466.13,409.01 466.09,409.17 466.06,409.35 466.02,409.54 465.97,409.75"/>
        <lane id=":2_0_2" index="2" disallow="pedestrian tram rail_urban rail rail_electric rail_fast ship" speed="36.11" length="3.02" width="3.50" shape="463.31,406.00 462.57,408.93"/>
    </edge>

    <edge id="66737" from="12" to="6" priority="3" type="highway.residential" spreadType="center" length="70.00" shape="565.88,312.63 618.74,368.55">
        <lane id="66737_0" index="0" disallow="pedestrian tram rail_urban rail rail_electric rail_fast ship" speed="36.11" length="70.00" width="3.50" customShape="1" shape="573.63,317.85 588.27,329.05 595.85,335.14 601.62,340.21 606.38,344.86 610.88,349.76 614.75,354.53 615.84,356.26 616.47,357.66 617.16,360.13 618.40,366.14 618.74,368.55"/>
    </edge>
    <edge id="66738" from="7" to="12" priority="3" type="highway.residential" spreadType="center" length="70.00" shape="615.66,371.73 563.32,315.02">
        <lane id="66738_0" index="0" disallow="pedestrian tram rail_urban rail rail_electric rail_fast ship" speed="36.11" length="70.00" width="3.50" customShape="1" shape="615.66,371.73 615.00,367.05 613.82,361.22 613.23,358.99 612.73,357.86 611.73,356.35 608.00,351.78 603.62,347.04 598.98,342.54 593.34,337.61 585.91,331.65 571.50,320.63"/>
    </edge>
    <edge id="67271" from="8" to="12" priority="3" type="highway.residential" spreadType="center" length="8.94">
        <lane id="67271_0" index="0" disallow="pedestrian tram rail_urban rail rail_electric rail_fast ship" speed="36.11" length="8.94" width="3.50" customShape="1" shape="571.85,292.24 568.61,296.06 568.53,296.15 566.06,299.05"/>
        <lane id="67271_1" index="1" disallow="pedestrian tram rail_urban rail rail_electric rail_fast ship" speed="36.11" length="8.94" width="3.49" customShape="1" shape="569.18,289.98 565.95,293.79 565.86,293.88 563.40,296.80"/>
    </edge>
    <edge id="67274" from="12" to="13" priority="3" type="highway.residential" spreadType="center" length="71.20">
        <lane id="67274_0" index="0" disallow="pedestrian tram rail_urban rail rail_electric rail_fast ship" speed="36.11" length="71.77" width="3.50" customShape="1" shape="553.51,313.58 534.28,335.66 526.67,343.91 519.84,350.79 515.32,354.99 503.54,364.91"/>
        <lane id="67274_1" index="1" disallow="pedestrian tram rail_urban rail rail_electric rail_fast ship" speed="36.11" length="71.20" width="3.50" customShape="1" shape="550.86,311.28 531.74,333.25 524.23,341.40 517.49,348.20 513.06,352.31 501.31,362.22"/>
    </edge>
    <edge id="67595" from="13" to="2" priority="3" type="highway.residential" spreadType="center" length="48.00">
        <lane id="67595_0" index="0" disallow="pedestrian tram rail_urban rail rail_electric rail_fast ship" speed="36.11" length="48.00" width="3.50" customShape="1" shape="497.32,369.12 485.42,381.41 481.85,385.61 478.50,389.93 476.32,393.19 474.40,396.63 472.52,400.65 470.96,404.82 470.05,407.85"/>
        <lane id="67595_1" index="1" disallow="pedestrian tram rail_urban rail rail_electric rail_fast ship" speed="36.11" length="49.80" width="3.50" customShape="1" shape="494.84,366.65 482.74,379.15 479.01,383.55 475.52,388.09 473.24,391.52 471.23,395.12 469.27,399.34 467.64,403.71 466.68,406.92"/>
        <lane id="67595_2" index="2" disallow="pedestrian tram rail_urban rail rail_electric rail_fast ship" speed="36.11" length="51.61" width="3.50" customShape="1" shape="492.35,364.17 480.07,376.89 476.21,381.46 472.57,386.20 470.17,389.83 468.07,393.64 466.01,398.08 464.30,402.66 463.31,406.00"/>
    </edge>
    <edge id="73697" from="2" to="11" priority="3" type="highway.residential" spreadType="center" length="17.17">
        <lane id="73697_0" index="0" disallow="pedestrian tram rail_urban rail rail_electric rail_fast ship" speed="36.11" length="17.17" width="3.50" customShape="1" shape="469.37,410.58 469.20,411.43 468.90,413.74 468.56,418.38 468.38,425.35 468.38,427.70"/>
        <lane id="73697_1" index="1" disallow="pedestrian tram rail_urban rail rail_electric rail_fast ship" speed="36.11" length="18.00" width="3.50" customShape="1" shape="465.97,409.75 465.76,410.80 465.44,413.26 465.07,418.11 464.88,425.30 464.88,427.69"/>
        <lane id="73697_2" index="2" disallow="pedestrian tram rail_urban rail rail_electric rail_fast ship" speed="36.11" length="18.84" width="3.50" customShape="1" shape="462.57,408.93 462.35,410.01 462.00,412.58 461.59,417.65 461.38,425.19 461.38,427.70"/>
    </edge>

    <junction id="11" type="dead_end" x="464.88" y="427.69" incLanes="73697_0 73697_1 73697_2" intLanes="" shape="470.12,427.70 459.63,427.68" rightOfWay="edgePriority"/>
    <junction id="12" type="priority" x="564.64" y="313.86" incLanes="66738_0 67271_0 67271_1" intLanes=":12_0_0 :12_1_0 :12_2_0 :12_2_1" shape="570.44,322.02 574.69,316.46 570.93,313.28 568.18,310.29 566.45,307.49 565.75,304.86 566.06,302.43 567.39,300.18 562.07,295.67 549.54,310.14 554.83,314.73 557.64,314.30 559.94,315.16 562.85,316.73 566.34,319.02">
        <request index="0" response="1100" foes="1100" cont="0"/>
        <request index="1" response="0000" foes="0000" cont="0"/>
        <request index="2" response="0000" foes="0001" cont="0"/>
        <request index="3" response="0000" foes="0001" cont="0"/>
    </junction>
    <junction id="13" type="priority" x="499.08" y="365.43" incLanes="67274_0 67274_1" intLanes=":13_0_0 :13_0_1 :13_0_2" shape="504.66,366.25 500.19,360.87 496.97,362.00 495.53,361.77 494.11,361.58 492.66,361.83 491.11,362.94 498.56,370.36 500.65,368.65 501.51,368.20 502.40,367.78 503.41,367.20">
        <request index="0" response="000" foes="000" cont="0"/>
        <request index="1" response="000" foes="000" cont="0"/>
        <request index="2" response="000" foes="000" cont="0"/>
    </junction>
    <junction id="2" type="priority" x="466.27" y="408.30" incLanes="67595_0 67595_1 67595_2" intLanes=":2_0_0 :2_0_1 :2_0_2" shape="471.74,408.31 461.62,405.53 460.87,408.51 471.07,410.99 471.28,409.99 471.36,409.64 471.45,409.29 471.57,408.88" rightOfWay="edgePriority">
        <request index="0" response="000" foes="000" cont="0"/>
        <request index="1" response="000" foes="000" cont="0"/>
        <request index="2" response="000" foes="000" cont="0"/>
    </junction>
    <junction id="6" type="dead_end" x="618.74" y="368.55" incLanes="66737_0" intLanes="" shape="620.47,368.30 617.01,368.80" rightOfWay="edgePriority"/>
    <junction id="7" type="dead_end" x="615.66" y="371.73" incLanes="" intLanes="" shape="617.39,371.48 613.93,371.97" rightOfWay="edgePriority"/>
    <junction id="8" type="dead_end" x="570.52" y="291.11" incLanes="" intLanes="" shape="567.85,288.85 573.18,293.38" rightOfWay="edgePriority"/>

    <connection from="66738" to="67274" fromLane="0" toLane="0" contPos="-4.00" shape="571.50,320.63 568.63,318.61 566.08,317.18 563.38,316.09 561.12,315.52 558.79,315.30 557.05,315.39 555.33,315.71 553.13,316.48 551.08,317.60 549.20,318.98 547.08,320.98 546.30,321.86" via=":12_0_0" dir="r" state="m"/>
    <connection from="67271" to="66737" fromLane="0" toLane="0" contPos="-4.00" shape="568.45,296.24 567.02,298.15 565.89,300.25 565.30,301.94 564.99,303.70 565.00,305.48 565.32,307.24 565.92,308.92 567.04,311.02 568.45,312.95 570.48,315.13 573.17,317.49 573.63,317.85" via=":12_1_0" dir="r" state="M"/>
    <connection from="67271" to="67274" fromLane="0" toLane="0" contPos="-4.00" shape="568.45,296.24 557.37,309.06 546.30,321.86" via=":12_2_0" dir="s" state="M"/>
    <connection from="67271" to="67274" fromLane="1" toLane="1" contPos="-4.00" shape="565.78,293.99 554.72,306.78 543.65,319.57" via=":12_2_1" dir="s" state="M"/>
    <connection from="67274" to="67595" fromLane="0" toLane="0" contPos="-4.00" shape="511.82,357.93 499.09,368.52 492.14,374.65 489.91,376.78" via=":13_0_0" dir="s" state="M"/>
    <connection from="67274" to="67595" fromLane="1" toLane="1" contPos="-4.00" shape="509.60,355.23 496.76,365.91 489.71,372.13 487.45,374.29" via=":13_0_1" dir="s" state="M"/>
    <connection from="67274" to="67595" fromLane="1" toLane="2" contPos="-4.00" shape="509.60,355.23 506.30,357.68 501.96,360.42 493.09,365.56 489.27,368.15 486.47,370.40 484.99,371.80" via=":13_0_2" dir="s" state="M"/>
    <connection from="67595" to="73697" fromLane="0" toLane="0" contPos="-4.00" via=":2_0_0" dir="s" state="M"/>
    <connection from="67595" to="73697" fromLane="1" toLane="1" contPos="-4.00" via=":2_0_1" dir="s" state="M"/>
    <connection from="67595" to="73697" fromLane="2" toLane="2" contPos="-4.00" via=":2_0_2" dir="s" state="M"/>

    <connection from=":12_0" to="67274" fromLane="0" toLane="0" dir="r" state="M"/>
    <connection from=":12_1" to="66737" fromLane="0" toLane="0" dir="r" state="M"/>
    <connection from=":12_2" to="67274" fromLane="0" toLane="0" dir="s" state="M"/>
    <connection from=":12_2" to="67274" fromLane="1" toLane="1" dir="s" state="M"/>
    <connection from=":13_0" to="67595" fromLane="0" toLane="0" dir="s" state="M"/>
    <connection from=":13_0" to="67595" fromLane="1" toLane="1" dir="s" state="M"/>
    <connection from=":13_0" to="67595" fromLane="2" toLane="2" dir="s" state="M"/>
    <connection from=":2_0" to="73697" fromLane="0" toLane="0" dir="s" state="M"/>
    <connection from=":2_0" to="73697" fromLane="1" toLane="1" dir="s" state="M"/>
    <connection from=":2_0" to="73697" fromLane="2" toLane="2" dir="s" state="M"/>

</net>