<routes>
	<vehicle depart="0.1" departLane="0" departPos="16.337515242257744" departSpeed="2.8079458" id="325" type="bicycle">
		<route edges="648 612"/>
	</vehicle>
	<vehicle depart="0.1" departLane="0" departPos="33.13660782592958" departSpeed="8.6234148" id="342" type="bus">
		<route edges=":29_0 649"/>
	</vehicle>
	<vehicle depart="0.1" departLane="0" departPos="30.417479835619293" departSpeed="3.1222571" id="38" type="passenger">
		<route edges="648 612"/>
	</vehicle>
	<vehicle depart="0.1" departLane="0" departPos="14.267683591052077" departSpeed="7.4611261" id="319" type="passenger">
		<route edges=":29_5 592"/>
	</vehicle>
	<vehicle depart="0.1" departLane="0" departPos="60.13604726689857" departSpeed="3.6956244" id="321" type="passenger">
		<route edges="648 612"/>
	</vehicle>
	<vehicle depart="0.1" departLane="0" departPos="47.30393755001378" departSpeed="3.6601771" id="324" type="passenger">
		<route edges="648 612"/>
	</vehicle>
	<vehicle depart="0.1" departLane="0" departPos="10.13340276642128" departSpeed="8.3177799" id="345" type="passenger">
		<route edges=":29_0 649"/>
	</vehicle>
	<vehicle depart="0.1" departLane="0" departPos="32.84904214171081" departSpeed="9.2052789" id="350" type="passenger">
		<route edges="591 612"/>
	</vehicle>
	<vehicle depart="0.1" departLane="0" departPos="21.687712381760278" departSpeed="7.436269" id="352" type="passenger">
		<route edges="591 649"/>
	</vehicle>
	<vehicle depart="0.1" departLane="0" departPos="49.0802736941632" departSpeed="8.1209563" id="347" type="motorcycle">
		<route edges="591 649"/>
	</vehicle>
</routes>
