<routes>
	<vehicle depart="0.1" departLane="0" departPos="69.94162238480129" departSpeed="1.1591948" id="317" type="bicycle">
		<route edges="38214 38030"/>
	</vehicle>
	<vehicle depart="0.1" departLane="0" departPos="41.37598709441068" departSpeed="4.2873346" id="341" type="bus">
		<route edges="37690 38030"/>
	</vehicle>
	<vehicle depart="0.1" departLane="0" departPos="23.87021826803897" departSpeed="0.39391411" id="31" type="passenger">
		<route edges=":17_4 37691"/>
	</vehicle>
	<vehicle depart="0.1" departLane="0" departPos="61.22048754478589" departSpeed="0.87069199" id="320" type="passenger">
		<route edges="38214 37691"/>
	</vehicle>
	<vehicle depart="0.1" departLane="0" departPos="47.48288654690996" departSpeed="1.8922777" id="322" type="passenger">
		<route edges="38214 37691"/>
	</vehicle>
	<vehicle depart="0.1" departLane="0" departPos="34.54029151302229" departSpeed="1.2706427" id="329" type="passenger">
		<route edges="38214 37691"/>
	</vehicle>
	<vehicle depart="0.1" departLane="0" departPos="40.322035773464975" departSpeed="0.65789639" id="326" type="motorcycle">
		<route edges="38214 37691"/>
	</vehicle>
	<vehicle depart="0.1" departLane="0" departPos="13.660788966611339" departSpeed="1.2481553" id="30" type="truck">
		<route edges=":17_1 38030"/>
	</vehicle>
	<vehicle depart="0.1" departLane="0" departPos="69.93642049516055" departSpeed="0.0" id="32" type="truck">
		<route edges="37700 37691"/>
	</vehicle>
	<vehicle depart="0.1" departLane="0" departPos="7.176347092675442" departSpeed="10.387016" id="334" type="truck">
		<route edges=":17_5 38030"/>
	</vehicle>
</routes>
