<routes>
	<vehicle depart="0.1" departLane="0" departPos="28.344742660509414" departSpeed="7.4731959e-05" id="329" type="passenger">
		<route edges="6751 7499"/>
	</vehicle>
	<vehicle depart="0.1" departLane="0" departPos="22.186186167891275" departSpeed="12.37036" id="332" type="passenger">
		<route edges=":33_1 6968"/>
	</vehicle>
	<vehicle depart="0.1" departLane="0" departPos="20.841254328013743" departSpeed="0.0011251998" id="333" type="passenger">
		<route edges="6751 7499"/>
	</vehicle>
	<vehicle depart="0.1" departLane="0" departPos="13.33396372060261" departSpeed="0.0085744053" id="337" type="passenger">
		<route edges="6751 7499"/>
	</vehicle>
	<vehicle depart="0.1" departLane="0" departPos="6.1243942092172805" departSpeed="0.039980017" id="339" type="passenger">
		<route edges="6751 7499"/>
	</vehicle>
	<vehicle depart="0.1" departLane="0" departPos="54.02725948201584" departSpeed="0.0" id="346" type="passenger">
		<route edges="6967 6751"/>
	</vehicle>
	<vehicle depart="0.1" departLane="0" departPos="58.528608342875735" departSpeed="1.1298546" id="321" type="motorcycle">
		<route edges="6965 6751"/>
	</vehicle>
	<vehicle depart="0.1" departLane="0" departPos="31.58701044074142" departSpeed="6.6600728" id="336" type="motorcycle">
		<route edges="6750 6968"/>
	</vehicle>
	<vehicle depart="0.1" departLane="0" departPos="46.5890208584589" departSpeed="0.014497424" id="349" type="truck">
		<route edges="6967 6751"/>
	</vehicle>
</routes>
