<!-- generated on Tue Feb  9 22:05:21 2021 by Eclipse SUMO netconvert Version 1.8.0
<configuration xmlns:xsi="http://www.w3.org/2001/XMLSchema-instance" xsi:noNamespaceSchemaLocation="http://sumo.dlr.de/xsd/netconvertConfiguration.xsd">

    <input>
        <node-files value="./converted_scenarios/scenario-factory/BEL_Nivelles-1_1_I-1-1/BEL_Nivelles-1_1_I-1-1.nod.xml"/>
        <edge-files value="./converted_scenarios/scenario-factory/BEL_Nivelles-1_1_I-1-1/BEL_Nivelles-1_1_I-1-1.edg.xml"/>
        <connection-files value="./converted_scenarios/scenario-factory/BEL_Nivelles-1_1_I-1-1/BEL_Nivelles-1_1_I-1-1.con.xml"/>
        <tllogic-files value="./converted_scenarios/scenario-factory/BEL_Nivelles-1_1_I-1-1/BEL_Nivelles-1_1_I-1-1.tll.xml"/>
        <type-files value="/home/zen/commonroad-interactive-benchmarks/install/commonroad-map-tool/crmapconverter/sumo_map/templates/DEU.typ.xml"/>
    </input>

    <output>
        <output-file value="./converted_scenarios/scenario-factory/BEL_Nivelles-1_1_I-1-1/BEL_Nivelles-1_1_I-1-1.net.xml"/>
    </output>

    <processing>
        <geometry.remove.keep-edges.explicit value="true"/>
        <geometry.avoid-overlap value="true"/>
        <offset.disable-normalization value="true"/>
    </processing>

    <junctions>
        <no-turnarounds value="true"/>
        <junctions.internal-link-detail value="20"/>
    </junctions>

    <report>
        <aggregate-warnings value="5"/>
    </report>

    <random_number>
        <seed value="1234"/>
    </random_number>

</configuration>
--><net xmlns:xsi="http://www.w3.org/2001/XMLSchema-instance" version="1.6" junctionCornerDetail="5" junctionLinkDetail="20" limitTurnSpeed="5.50" xsi:noNamespaceSchemaLocation="http://sumo.dlr.de/xsd/net_file.xsd">

    <location netOffset="0.00,0.00" convBoundary="731.23,472.09,960.12,687.14" origBoundary="731.23,472.09,960.12,687.14" projParameter="!"/>

    <type id="highway.bridleway" priority="1" speed="2.78" allow="pedestrian" oneway="1" width="2.00"/>
    <type id="highway.bus_guideway" priority="1" speed="27.78" allow="bus" oneway="1"/>
    <type id="highway.cycleway" priority="1" speed="8.33" allow="bicycle" oneway="0" width="1.00"/>
    <type id="highway.footway" priority="1" speed="2.78" allow="pedestrian" oneway="1" width="2.00"/>
    <type id="highway.ford" priority="1" speed="2.78" allow="army" oneway="0"/>
    <type id="highway.living_street" priority="2" speed="2.78" disallow="tram rail_urban rail rail_electric rail_fast ship" oneway="0"/>
    <type id="highway.motorway" priority="14" speed="39.44" allow="private emergency authority army vip passenger hov taxi bus coach delivery truck trailer motorcycle evehicle custom1 custom2" oneway="1"/>
    <type id="highway.motorway_link" priority="9" speed="22.22" allow="private emergency authority army vip passenger hov taxi bus coach delivery truck trailer motorcycle evehicle custom1 custom2" oneway="1"/>
    <type id="highway.path" priority="1" speed="2.78" allow="pedestrian bicycle" oneway="0" width="2.00"/>
    <type id="highway.pedestrian" priority="1" speed="2.78" allow="pedestrian" oneway="1" width="2.00"/>
    <type id="highway.primary" priority="12" speed="27.78" disallow="pedestrian tram rail_urban rail rail_electric rail_fast ship" oneway="0"/>
    <type id="highway.primary_link" priority="7" speed="22.22" disallow="pedestrian tram rail_urban rail rail_electric rail_fast ship" oneway="0"/>
    <type id="highway.raceway" priority="15" speed="83.33" allow="vip" oneway="0"/>
    <type id="highway.residential" priority="3" speed="13.89" disallow="pedestrian tram rail_urban rail rail_electric rail_fast ship" oneway="0"/>
    <type id="highway.secondary" priority="11" speed="27.78" disallow="pedestrian tram rail_urban rail rail_electric rail_fast ship" oneway="0"/>
    <type id="highway.secondary_link" priority="6" speed="22.22" disallow="pedestrian tram rail_urban rail rail_electric rail_fast ship" oneway="0"/>
    <type id="highway.service" priority="1" speed="5.56" allow="pedestrian delivery bicycle" oneway="0"/>
    <type id="highway.stairs" priority="1" speed="1.39" allow="pedestrian" oneway="1" width="2.00"/>
    <type id="highway.step" priority="1" speed="1.39" allow="pedestrian" oneway="1" width="2.00"/>
    <type id="highway.steps" priority="1" speed="1.39" allow="pedestrian" oneway="1" width="2.00"/>
    <type id="highway.tertiary" priority="10" speed="22.22" disallow="pedestrian tram rail_urban rail rail_electric rail_fast ship" oneway="0"/>
    <type id="highway.tertiary_link" priority="5" speed="22.22" disallow="pedestrian tram rail_urban rail rail_electric rail_fast ship" oneway="0"/>
    <type id="highway.track" priority="1" speed="5.56" allow="pedestrian motorcycle moped bicycle" oneway="0"/>
    <type id="highway.trunk" priority="13" speed="27.78" disallow="pedestrian bicycle tram rail_urban rail rail_electric rail_fast ship" oneway="0"/>
    <type id="highway.trunk_link" priority="8" speed="22.22" disallow="pedestrian bicycle tram rail_urban rail rail_electric rail_fast ship" oneway="0"/>
    <type id="highway.unclassified" priority="4" speed="13.89" disallow="pedestrian tram rail_urban rail rail_electric rail_fast ship" oneway="0"/>
    <type id="highway.unsurfaced" priority="1" speed="8.33" disallow="tram rail_urban rail rail_electric rail_fast ship" oneway="0"/>
    <type id="railway.highspeed" priority="21" speed="69.44" allow="rail_fast" oneway="1"/>
    <type id="railway.light_rail" priority="19" speed="27.78" allow="rail_urban" oneway="1"/>
    <type id="railway.preserved" priority="16" speed="27.78" allow="rail" oneway="1"/>
    <type id="railway.rail" priority="20" speed="44.44" allow="rail" oneway="1"/>
    <type id="railway.subway" priority="18" speed="27.78" allow="rail_urban" oneway="1"/>
    <type id="railway.tram" priority="17" speed="13.89" allow="tram" oneway="1"/>

    <edge id=":33_0" function="internal">
        <lane id=":33_0_0" index="0" disallow="pedestrian tram rail_urban rail rail_electric rail_fast ship" speed="12.11" length="29.92" width="3.50" shape="852.74,543.65 850.94,542.45 848.04,540.87 846.07,540.05 844.04,539.42 841.97,539.03 839.89,538.90 837.81,539.04 835.77,539.45 833.78,540.13 831.87,541.03 830.04,542.15 828.31,543.42 825.83,545.64"/>
    </edge>
    <edge id=":33_1" function="internal">
        <lane id=":33_1_0" index="0" disallow="pedestrian tram rail_urban rail rail_electric rail_fast ship" speed="12.02" length="34.40" width="3.50" shape="852.74,543.65 849.76,541.30 847.88,539.51 846.17,537.52 844.72,535.32 844.08,534.10 843.56,532.84 843.15,531.53 842.86,530.18 842.70,528.81 842.68,527.43 842.78,526.06 843.00,524.71 843.34,523.37 844.25,520.91 845.45,518.58 846.86,516.41 848.40,514.39"/>
    </edge>
    <edge id=":33_2" function="internal">
        <lane id=":33_2_0" index="0" disallow="pedestrian tram rail_urban rail rail_electric rail_fast ship" speed="11.00" length="28.58" width="3.50" shape="851.11,516.60 849.78,518.35 848.58,520.19 847.57,522.15 846.82,524.21 846.55,525.28 846.38,526.36 846.30,527.46 846.32,528.56 846.45,529.65 846.68,530.72 847.02,531.77 847.44,532.78 847.95,533.76 849.16,535.59 850.60,537.25 852.19,538.77 854.79,540.81"/>
    </edge>
    <edge id=":33_3" function="internal">
        <lane id=":33_3_0" index="0" disallow="pedestrian tram rail_urban rail rail_electric rail_fast ship" speed="36.11" length="38.51" width="3.50" shape="851.11,516.60 838.42,531.75 830.86,540.34 825.83,545.64"/>
    </edge>
    <edge id=":33_4" function="internal">
        <lane id=":33_4_0" index="0" disallow="pedestrian tram rail_urban rail rail_electric rail_fast ship" speed="36.11" length="38.13" width="3.50" shape="823.38,543.15 828.32,537.94 835.80,529.43 848.40,514.39"/>
    </edge>
    <edge id=":33_5" function="internal">
        <lane id=":33_5_0" index="0" disallow="pedestrian tram rail_urban rail rail_electric rail_fast ship" speed="13.04" length="34.87" width="3.50" shape="823.38,543.15 826.17,540.64 828.18,539.16 830.30,537.87 832.55,536.81 834.91,536.01 837.34,535.51 839.83,535.34 842.31,535.49 844.76,535.95 847.13,536.68 849.43,537.64 852.71,539.43 854.79,540.81"/>
    </edge>
    <edge id=":34_0" function="internal">
        <lane id=":34_0_0" index="0" disallow="pedestrian tram rail_urban rail rail_electric rail_fast ship" speed="12.71" length="32.76" width="3.50" shape="898.97,602.16 896.96,599.58 895.44,598.00 893.78,596.59 891.97,595.38 890.02,594.39 887.96,593.67 885.82,593.22 883.65,593.04 881.46,593.11 879.30,593.39 877.17,593.86 874.04,594.85 871.02,596.12 870.03,596.60"/>
    </edge>
    <edge id=":34_1" function="internal">
        <lane id=":34_1_0" index="0" disallow="pedestrian tram rail_urban rail rail_electric rail_fast ship" speed="36.11" length="40.43" width="3.50" shape="898.97,602.16 894.71,596.29 882.56,580.80 878.34,574.90 875.02,569.62"/>
    </edge>
    <edge id=":34_2" function="internal">
        <lane id=":34_2_0" index="0" disallow="pedestrian tram rail_urban rail rail_electric rail_fast ship" speed="12.22" length="34.47" width="3.50" shape="898.97,602.16 897.54,599.93 896.31,597.58 895.32,595.12 894.65,592.56 894.45,591.25 894.36,589.93 894.38,588.61 894.51,587.29 894.77,585.99 895.14,584.72 895.62,583.48 896.19,582.29 897.61,580.05 899.29,578.00 901.18,576.15 904.29,573.67 905.40,572.90"/>
    </edge>
    <edge id=":34_3" function="internal">
        <lane id=":34_3_0" index="0" disallow="pedestrian tram rail_urban rail rail_electric rail_fast ship" speed="11.22" length="28.86" width="3.50" shape="907.38,575.78 906.40,576.46 903.66,578.64 902.05,580.21 900.63,581.93 899.44,583.80 898.99,584.75 898.59,585.74 898.29,586.76 898.09,587.80 897.97,588.85 897.95,589.91 898.02,590.98 898.17,592.01 898.73,594.17 899.56,596.24 900.62,598.24 901.84,600.16"/>
    </edge>
    <edge id=":34_4" function="internal">
        <lane id=":34_4_0" index="0" disallow="pedestrian tram rail_urban rail rail_electric rail_fast ship" speed="36.11" length="42.78" width="3.50" shape="907.38,575.79 900.29,580.29 891.28,585.51 880.26,591.42 870.03,596.60"/>
    </edge>
    <edge id=":34_5" function="internal">
        <lane id=":34_5_0" index="0" disallow="pedestrian tram rail_urban rail rail_electric rail_fast ship" speed="12.59" length="38.34" width="3.50" shape="907.38,575.79 903.95,577.89 901.60,579.09 899.16,580.09 896.64,580.86 894.04,581.33 891.41,581.44 890.09,581.34 888.79,581.14 887.51,580.82 886.26,580.39 885.05,579.86 883.89,579.24 881.72,577.74 879.76,575.97 878.01,574.00 876.44,571.87 875.02,569.62"/>
    </edge>
    <edge id=":34_6" function="internal">
        <lane id=":34_6_0" index="0" disallow="pedestrian tram rail_urban rail rail_electric rail_fast ship" speed="11.63" length="32.52" width="3.50" shape="878.02,567.83 879.28,569.83 880.65,571.67 882.15,573.35 883.80,574.84 885.63,576.09 886.56,576.58 887.55,577.01 888.56,577.35 889.60,577.60 890.65,577.77 891.70,577.84 893.90,577.74 896.08,577.34 898.23,576.67 900.34,575.80 902.39,574.75 905.40,572.90"/>
    </edge>
    <edge id=":34_7" function="internal">
        <lane id=":34_7_0" index="0" disallow="pedestrian tram rail_urban rail rail_electric rail_fast ship" speed="36.11" length="40.18" width="3.50" shape="878.02,567.83 881.30,573.02 885.45,578.83 897.56,594.27 901.84,600.16"/>
    </edge>
    <edge id=":34_8" function="internal">
        <lane id=":34_8_0" index="0" disallow="pedestrian tram rail_urban rail rail_electric rail_fast ship" speed="11.89" length="34.87" width="3.50" shape="878.02,567.83 879.91,571.43 880.92,573.91 881.68,576.48 882.13,579.12 882.20,580.45 882.16,581.79 882.01,583.12 881.73,584.43 881.33,585.71 880.81,586.94 880.18,588.12 879.44,589.24 878.61,590.29 876.74,592.20 874.65,593.87 872.40,595.32 870.03,596.60"/>
    </edge>
    <edge id=":34_9" function="internal">
        <lane id=":34_9_0" index="0" disallow="pedestrian tram rail_urban rail rail_electric rail_fast ship" speed="10.88" length="28.98" width="3.50" shape="868.48,593.46 870.53,592.36 872.45,591.12 874.21,589.71 875.78,588.11 876.43,587.27 877.02,586.38 877.52,585.44 877.93,584.46 878.24,583.46 878.46,582.42 878.57,581.36 878.60,580.28 878.54,579.23 878.17,577.02 877.52,574.86 876.66,572.75 875.02,569.62"/>
    </edge>
    <edge id=":34_10" function="internal">
        <lane id=":34_10_0" index="0" disallow="pedestrian tram rail_urban rail rail_electric rail_fast ship" speed="36.11" length="42.28" width="3.50" shape="868.48,593.46 878.63,588.33 889.54,582.48 898.45,577.32 905.40,572.90"/>
    </edge>
    <edge id=":34_11" function="internal">
        <lane id=":34_11_0" index="0" disallow="pedestrian tram rail_urban rail rail_electric rail_fast ship" speed="13.62" length="37.78" width="3.50" shape="868.48,593.46 869.61,592.92 872.98,591.51 876.50,590.40 878.96,589.87 881.45,589.56 883.99,589.50 886.54,589.73 889.06,590.28 891.48,591.15 893.77,592.33 895.89,593.76 897.82,595.41 899.57,597.24 901.84,600.16"/>
    </edge>
    <edge id=":35_0" function="internal">
        <lane id=":35_0_0" index="0" disallow="pedestrian tram rail_urban rail rail_electric rail_fast ship" speed="36.11" length="39.44" width="3.50" shape="792.97,636.28 792.59,624.87 790.98,596.89"/>
    </edge>
    <edge id=":35_1" function="internal">
        <lane id=":35_1_0" index="0" disallow="pedestrian tram rail_urban rail rail_electric rail_fast ship" speed="13.37" length="35.25" width="3.50" shape="792.97,636.28 793.12,632.51 793.50,630.02 794.12,627.58 795.01,625.22 796.18,623.00 797.64,620.94 799.34,619.09 801.27,617.47 803.36,616.07 805.58,614.89 809.09,613.48 812.72,612.43 813.95,612.16"/>
    </edge>
    <edge id=":35_2" function="internal">
        <lane id=":35_2_0" index="0" disallow="pedestrian tram rail_urban rail rail_electric rail_fast ship" speed="12.44" length="30.38" width="3.50" shape="814.67,615.58 813.60,615.82 810.35,616.75 807.26,617.99 805.34,619.00 803.54,620.19 801.90,621.56 800.45,623.11 799.22,624.83 798.23,626.70 797.46,628.69 796.93,630.78 796.60,632.91 796.46,636.22"/>
    </edge>
    <edge id=":35_3" function="internal">
        <lane id=":35_3_0" index="0" disallow="pedestrian tram rail_urban rail rail_electric rail_fast ship" speed="36.11" length="40.19" width="3.50" shape="814.67,615.58 812.60,615.99 806.46,616.93 798.25,617.78 788.00,618.47 774.67,618.96"/>
    </edge>
    <edge id=":35_4" function="internal">
        <lane id=":35_4_0" index="0" disallow="pedestrian tram rail_urban rail rail_electric rail_fast ship" speed="11.65" length="35.96" width="3.50" shape="814.67,615.58 812.05,616.04 809.38,616.31 806.66,616.32 803.94,615.99 802.54,615.67 801.19,615.22 799.87,614.64 798.61,613.93 797.43,613.08 796.35,612.11 795.38,611.03 794.53,609.88 793.80,608.66 793.17,607.41 792.64,606.10 791.87,603.51 791.35,600.85 790.98,596.89"/>
    </edge>
    <edge id=":35_5" function="internal">
        <lane id=":35_5_0" index="0" disallow="pedestrian tram rail_urban rail rail_electric rail_fast ship" speed="10.60" length="29.60" width="3.50" shape="794.49,596.87 794.80,600.16 795.23,602.41 795.89,604.60 796.32,605.65 796.82,606.68 797.41,607.66 798.09,608.58 798.85,609.43 799.70,610.20 800.63,610.87 801.62,611.43 802.67,611.89 803.75,612.25 804.86,612.52 807.13,612.79 809.42,612.78 811.69,612.55 813.95,612.16"/>
    </edge>
    <edge id=":35_6" function="internal">
        <lane id=":35_6_0" index="0" disallow="pedestrian tram rail_urban rail rail_electric rail_fast ship" speed="36.11" length="39.40" width="3.50" shape="794.49,596.87 796.09,624.75 796.46,636.22"/>
    </edge>
    <edge id=":35_7" function="internal">
        <lane id=":35_7_0" index="0" disallow="pedestrian tram rail_urban rail rail_electric rail_fast ship" speed="12.27" length="34.18" width="3.50" shape="794.48,596.87 794.46,600.70 794.21,603.33 793.70,605.92 792.89,608.43 792.35,609.64 791.73,610.80 791.01,611.91 790.19,612.94 789.29,613.91 788.30,614.78 787.24,615.57 786.12,616.26 783.72,617.37 781.20,618.15 778.61,618.65 775.99,618.91 774.67,618.96"/>
    </edge>
    <edge id=":35_8" function="internal">
        <lane id=":35_8_0" index="0" disallow="pedestrian tram rail_urban rail rail_electric rail_fast ship" speed="11.27" length="28.65" width="3.50" shape="774.59,615.46 775.71,615.42 777.98,615.19 780.18,614.77 782.29,614.12 784.27,613.19 785.15,612.64 786.00,612.01 786.78,611.31 787.50,610.54 788.15,609.71 788.72,608.82 789.22,607.87 789.65,606.91 790.33,604.79 790.75,602.60 790.97,600.36 790.98,596.89"/>
    </edge>
    <edge id=":35_9" function="internal">
        <lane id=":35_9_0" index="0" disallow="pedestrian tram rail_urban rail rail_electric rail_fast ship" speed="36.11" length="39.54" width="3.50" shape="774.59,615.46 787.75,614.98 797.87,614.30 805.94,613.46 811.96,612.55 813.95,612.16"/>
    </edge>

    <edge id="6750" from="34" to="33" priority="3" type="highway.residential" spreadType="center" length="34.59" shape="886.86,586.02 841.41,535.21">
        <lane id="6750_0" index="0" disallow="pedestrian tram rail_urban rail rail_electric rail_fast ship" speed="36.11" length="34.59" width="3.50" customShape="1" shape="875.02,569.62 873.23,566.64 869.72,561.16 866.47,556.72 863.26,552.88 860.13,549.64 856.75,546.68 852.68,543.61"/>
    </edge>
    <edge id="6751" from="33" to="34" priority="3" type="highway.residential" spreadType="center" length="35.95" shape="844.01,532.88 889.47,583.69">
        <lane id="6751_0" index="0" disallow="pedestrian tram rail_urban rail rail_electric rail_fast ship" speed="36.11" length="35.95" width="3.50" customShape="1" shape="854.79,540.81 858.95,543.96 862.51,547.08 865.80,550.48 869.17,554.48 872.55,559.11 876.19,564.76 878.03,567.84"/>
    </edge>
    <edge id="6961" from="35" to="29" priority="3" type="highway.residential" spreadType="center" length="50.85" shape="795.84,615.96 797.24,687.06">
        <lane id="6961_0" index="0" disallow="pedestrian tram rail_urban rail rail_electric rail_fast ship" speed="36.11" length="50.85" width="3.50" customShape="1" shape="796.46,636.22 796.85,661.64 797.24,687.06"/>
    </edge>
    <edge id="6962" from="31" to="35" priority="3" type="highway.residential" spreadType="center" length="50.87" shape="793.74,687.14 792.35,616.03">
        <lane id="6962_0" index="0" disallow="pedestrian tram rail_urban rail rail_electric rail_fast ship" speed="36.11" length="50.87" width="3.50" customShape="1" shape="793.74,687.14 793.35,661.70 792.97,636.28"/>
    </edge>
    <edge id="6964" from="33" to="35" priority="3" type="highway.residential" spreadType="center" length="62.05" shape="844.21,534.93 795.58,616.96">
        <lane id="6964_0" index="0" disallow="pedestrian tram rail_urban rail rail_electric rail_fast ship" speed="36.11" length="62.05" width="3.50" customShape="1" shape="825.83,545.64 819.13,552.22 812.86,558.57 808.55,563.35 805.13,567.60 802.28,571.66 799.97,575.48 797.95,579.45 796.25,583.58 795.35,586.41 794.77,589.33 794.45,592.78 794.48,596.87"/>
    </edge>
    <edge id="6965" from="35" to="33" priority="3" type="highway.residential" spreadType="center" length="64.85" shape="792.57,615.17 841.20,533.15">
        <lane id="6965_0" index="0" disallow="pedestrian tram rail_urban rail rail_electric rail_fast ship" speed="36.11" length="64.85" width="3.50" customShape="1" shape="790.98,596.89 790.96,592.70 791.28,588.99 791.90,585.82 792.83,582.74 794.60,578.38 796.70,574.17 799.09,570.14 802.05,565.87 805.60,561.42 810.06,556.44 816.50,549.89 823.38,543.15"/>
    </edge>
    <edge id="6967" from="26" to="33" priority="3" type="highway.residential" spreadType="center" length="55.03" shape="886.26,474.29 844.12,535.07">
        <lane id="6967_0" index="0" disallow="pedestrian tram rail_urban rail rail_electric rail_fast ship" speed="36.11" length="55.03" width="3.50" customShape="1" shape="886.26,474.29 867.52,496.79 851.10,516.62"/>
    </edge>
    <edge id="6968" from="33" to="17" priority="3" type="highway.residential" spreadType="center" length="54.99" shape="841.25,533.08 883.54,472.09">
        <lane id="6968_0" index="0" disallow="pedestrian tram rail_urban rail rail_electric rail_fast ship" speed="36.11" length="54.99" width="3.50" customShape="1" shape="848.40,514.39 864.82,494.56 883.54,472.09"/>
    </edge>
    <edge id="7457" from="25" to="34" priority="3" type="highway.residential" spreadType="center" length="48.87" shape="926.70,642.38 886.69,585.79">
        <lane id="7457_0" index="0" disallow="pedestrian tram rail_urban rail rail_electric rail_fast ship" speed="36.11" length="48.87" width="3.50" customShape="1" shape="926.70,642.38 912.83,622.27 898.96,602.15"/>
    </edge>
    <edge id="7458" from="34" to="14" priority="3" type="highway.residential" spreadType="center" length="48.87" shape="889.54,583.77 929.58,640.40">
        <lane id="7458_0" index="0" disallow="pedestrian tram rail_urban rail rail_electric rail_fast ship" speed="36.11" length="48.87" width="3.50" customShape="1" shape="901.84,600.16 915.72,620.29 929.58,640.40"/>
    </edge>
    <edge id="7499" from="34" to="13" priority="3" type="highway.residential" spreadType="center" length="70.00" shape="887.03,583.47 958.09,527.17">
        <lane id="7499_0" index="0" disallow="pedestrian tram rail_urban rail rail_electric rail_fast ship" speed="36.11" length="70.00" width="3.50" customShape="1" shape="905.40,572.90 911.60,568.65 920.55,562.16 930.46,554.44 936.22,549.56 942.44,543.71 949.88,536.22 956.69,528.82 958.09,527.17"/>
    </edge>
    <edge id="7500" from="24" to="34" priority="3" type="highway.residential" spreadType="center" length="70.00" shape="960.12,530.18 889.20,586.21">
        <lane id="7500_0" index="0" disallow="pedestrian tram rail_urban rail rail_electric rail_fast ship" speed="36.11" length="70.00" width="3.50" customShape="1" shape="960.12,530.18 959.30,531.14 952.41,538.64 944.88,546.22 938.56,552.17 932.70,557.12 922.68,564.94 913.62,571.51 907.34,575.81"/>
    </edge>
    <edge id="7505" from="35" to="34" priority="3" type="highway.residential" spreadType="center" length="57.88" shape="793.51,614.39 887.59,583.16">
        <lane id="7505_0" index="0" disallow="pedestrian tram rail_urban rail rail_electric rail_fast ship" speed="36.11" length="57.88" width="3.50" customShape="1" shape="813.95,612.16 815.91,611.74 825.22,609.57 835.87,606.58 844.02,603.98 851.09,601.36 858.95,598.00 868.53,593.44"/>
    </edge>
    <edge id="7506" from="34" to="35" priority="3" type="highway.residential" spreadType="center" length="58.72" shape="888.69,586.48 794.62,617.71">
        <lane id="7506_0" index="0" disallow="pedestrian tram rail_urban rail rail_electric rail_fast ship" speed="36.11" length="58.72" width="3.50" customShape="1" shape="870.03,596.60 860.38,601.20 852.38,604.61 845.18,607.29 836.90,609.92 826.10,612.96 816.67,615.16 814.65,615.58"/>
    </edge>
    <edge id="7508" from="32" to="35" priority="3" type="highway.residential" spreadType="center" length="43.37" shape="731.23,616.54 794.08,614.29">
        <lane id="7508_0" index="0" disallow="pedestrian tram rail_urban rail rail_electric rail_fast ship" speed="36.11" length="43.37" width="3.50" customShape="1" shape="731.23,616.54 752.91,616.00 774.59,615.46"/>
    </edge>
    <edge id="7509" from="35" to="30" priority="3" type="highway.residential" spreadType="center" length="43.36" shape="794.21,617.78 731.32,620.03">
        <lane id="7509_0" index="0" disallow="pedestrian tram rail_urban rail rail_electric rail_fast ship" speed="36.11" length="43.36" width="3.50" customShape="1" shape="774.67,618.96 752.99,619.50 731.32,620.03"/>
    </edge>

    <junction id="13" type="dead_end" x="958.09" y="527.17" incLanes="7499_0" intLanes="" shape="956.76,526.03 959.42,528.31" rightOfWay="edgePriority"/>
    <junction id="14" type="dead_end" x="929.58" y="640.40" incLanes="7458_0" intLanes="" shape="931.02,639.41 928.14,641.39" rightOfWay="edgePriority"/>
    <junction id="17" type="dead_end" x="883.54" y="472.09" incLanes="6968_0" intLanes="" shape="882.20,470.97 884.89,473.21" rightOfWay="edgePriority"/>
    <junction id="24" type="dead_end" x="960.12" y="530.18" incLanes="" intLanes="" shape="958.79,529.04 961.45,531.32" rightOfWay="edgePriority"/>
    <junction id="25" type="dead_end" x="926.70" y="642.38" incLanes="" intLanes="" shape="928.14,641.39 925.26,643.38" rightOfWay="edgePriority"/>
    <junction id="26" type="dead_end" x="886.26" y="474.29" incLanes="" intLanes="" shape="884.92,473.17 887.61,475.41" rightOfWay="edgePriority"/>
    <junction id="29" type="dead_end" x="797.24" y="687.06" incLanes="6961_0" intLanes="" shape="798.99,687.04 795.49,687.09" rightOfWay="edgePriority"/>
    <junction id="30" type="dead_end" x="731.32" y="620.03" incLanes="7509_0" intLanes="" shape="731.36,621.78 731.27,618.29" rightOfWay="edgePriority"/>
    <junction id="31" type="dead_end" x="793.74" y="687.14" incLanes="" intLanes="" shape="795.49,687.12 791.99,687.17" rightOfWay="edgePriority"/>
    <junction id="32" type="dead_end" x="731.23" y="616.54" incLanes="" intLanes="" shape="731.27,618.29 731.19,614.79" rightOfWay="edgePriority"/>
    <junction id="33" type="priority" x="842.71" y="534.04" incLanes="6750_0 6967_0 6965_0" intLanes=":33_0_0 :33_1_0 :33_2_0 :33_3_0 :33_4_0 :33_5_0" shape="851.63,545.00 855.85,539.42 852.10,536.06 849.63,532.60 848.43,529.04 848.50,525.37 849.84,521.61 852.45,517.74 847.05,513.27 841.95,519.55 838.23,524.24 835.15,528.08 831.94,531.82 827.86,536.18 822.15,541.90 827.05,546.89 831.01,543.63 835.02,541.55 839.09,540.64 843.21,540.92 847.39,542.37">
        <request index="0" response="001000" foes="001000" cont="0"/>
        <request index="1" response="111000" foes="111000" cont="0"/>
        <request index="2" response="000000" foes="100000" cont="0"/>
        <request index="3" response="000000" foes="100011" cont="0"/>
        <request index="4" response="000000" foes="000010" cont="0"/>
        <request index="5" response="001100" foes="001110" cont="0"/>
    </junction>
    <junction id="34" type="priority" x="888.14" y="584.82" incLanes="7457_0 7500_0 6751_0 7505_0" intLanes=":34_0_0 :34_1_0 :34_2_0 :34_3_0 :34_4_0 :34_5_0 :34_6_0 :34_7_0 :34_8_0 :34_9_0 :34_10_0 :34_11_0" shape="897.52,603.14 903.28,599.17 901.02,595.08 900.00,591.16 900.23,587.42 901.70,583.85 904.41,580.45 908.37,577.23 904.41,571.46 899.35,574.33 894.65,575.75 890.32,575.72 886.36,574.24 882.76,571.31 879.52,566.93 873.52,570.52 875.76,575.14 876.72,579.33 876.41,583.09 874.81,586.44 871.93,589.36 867.78,591.86 870.79,598.17 876.40,595.99 881.55,595.01 886.24,595.24 890.46,596.67 894.22,599.30">
        <request index="0" response="000000000000" foes="000100010000" cont="0"/>
        <request index="1" response="000000000000" foes="111100110000" cont="0"/>
        <request index="2" response="000011000000" foes="110011110000" cont="0"/>
        <request index="3" response="000010000000" foes="100010000000" cont="0"/>
        <request index="4" response="000110000111" foes="100110000111" cont="0"/>
        <request index="5" response="011110000110" foes="011110000110" cont="0"/>
        <request index="6" response="000000000000" foes="010000000100" cont="0"/>
        <request index="7" response="000000000000" foes="110000111100" cont="0"/>
        <request index="8" response="000000000011" foes="110000110011" cont="0"/>
        <request index="9" response="000000000010" foes="000000100010" cont="0"/>
        <request index="10" response="000111000110" foes="000111100110" cont="0"/>
        <request index="11" response="000110011110" foes="000110011110" cont="0"/>
    </junction>
    <junction id="35" type="priority" x="794.09" y="616.04" incLanes="6962_0 7506_0 6964_0 7508_0" intLanes=":35_0_0 :35_1_0 :35_2_0 :35_3_0 :35_4_0 :35_5_0 :35_6_0 :35_7_0 :35_8_0 :35_9_0" shape="791.22,636.30 798.21,636.20 798.62,631.43 799.98,627.31 802.30,623.83 805.59,621.00 809.83,618.82 815.04,617.29 813.58,610.45 808.31,611.09 803.99,610.57 800.62,608.88 798.20,606.04 796.74,602.03 796.23,596.85 789.23,596.90 788.85,601.94 787.65,606.08 785.61,609.33 782.75,611.68 779.06,613.15 774.54,613.72 774.72,620.71 779.69,621.03 783.78,622.27 786.97,624.41 789.28,627.46 790.69,631.43">
        <request index="0" response="1100011000" foes="1110011000" cont="0"/>
        <request index="1" response="1001111000" foes="1001111000" cont="0"/>
        <request index="2" response="0000000000" foes="0001000000" cont="0"/>
        <request index="3" response="0000000000" foes="0011000011" cont="0"/>
        <request index="4" response="1100000000" foes="1111000011" cont="0"/>
        <request index="5" response="1000000000" foes="1000000010" cont="0"/>
        <request index="6" response="1000011100" foes="1000011110" cont="0"/>
        <request index="7" response="1000011001" foes="1000011001" cont="0"/>
        <request index="8" response="0000000000" foes="0000010001" cont="0"/>
        <request index="9" response="0000000000" foes="0011110011" cont="0"/>
    </junction>

    <connection from="6750" to="6964" fromLane="0" toLane="0" contPos="-4.00" shape="852.74,543.65 850.94,542.45 848.04,540.87 846.07,540.05 844.04,539.42 841.97,539.03 839.89,538.90 837.81,539.04 835.77,539.45 833.78,540.13 831.87,541.03 830.04,542.15 828.31,543.42 825.83,545.64" via=":33_0_0" dir="r" state="m"/>
    <connection from="6750" to="6968" fromLane="0" toLane="0" contPos="-4.00" shape="852.74,543.65 849.76,541.30 847.88,539.51 846.17,537.52 844.72,535.32 844.08,534.10 843.56,532.84 843.15,531.53 842.86,530.18 842.70,528.81 842.68,527.43 842.78,526.06 843.00,524.71 843.34,523.37 844.25,520.91 845.45,518.58 846.86,516.41 848.40,514.39" via=":33_1_0" dir="l" state="m"/>