<routes>
	<vehicle depart="0.1" departLane="0" departPos="17.96723240262417" departSpeed="1.5521768" id="355" type="bicycle">
		<route edges=":56_3 40347"/>
	</vehicle>
	<vehicle depart="0.1" departLane="0" departPos="18.890037508422928" departSpeed="4.5922015" id="310" type="passenger">
		<route edges=":56_5 40290"/>
	</vehicle>
	<vehicle depart="0.1" departLane="0" departPos="7.131941335348736" departSpeed="1.3453399" id="316" type="passenger">
		<route edges="40347 40176"/>
	</vehicle>
	<vehicle depart="0.1" departLane="0" departPos="18.935675621341094" departSpeed="0.98741475" id="324" type="passenger">
		<route edges="40347 40176"/>
	</vehicle>
	<vehicle depart="0.1" departLane="0" departPos="27.015680209079388" departSpeed="4.0645423" id="342" type="passenger">
		<route edges="40346 40290"/>
	</vehicle>
	<vehicle depart="0.1" departLane="0" departPos="45.31244339255355" departSpeed="0.0" id="344" type="passenger">
		<route edges="40289 40343"/>
	</vehicle>
	<vehicle depart="0.1" departLane="0" departPos="10.534938135093455" departSpeed="2.4473486" id="359" type="passenger">
		<route edges="40346 40290"/>
	</vehicle>
	<vehicle depart="0.1" departLane="0" departPos="32.115941010707935" departSpeed="1.0072706" id="365" type="passenger">
		<route edges=":56_3 40347"/>
	</vehicle>
	<vehicle depart="0.1" departLane="0" departPos="7.199539653782751" departSpeed="0.050471885" id="372" type="passenger">
		<route edges=":56_2 40290"/>
	</vehicle>
	<vehicle depart="0.1" departLane="0" departPos="27.827787148454163" departSpeed="0.96416418" id="376" type="passenger">
		<route edges="40344 40347"/>
	</vehicle>
</routes>
