<routes>
	<vehicle depart="0.1" departLane="0" departPos="53.14871729403197" departSpeed="1.275677" id="33" type="passenger">
		<route edges="4627 4609"/>
	</vehicle>
	<vehicle depart="0.1" departLane="0" departPos="37.88532337017668" departSpeed="1.5546168" id="36" type="passenger">
		<route edges="4627 4609"/>
	</vehicle>
	<vehicle depart="0.1" departLane="0" departPos="48.905231212612875" departSpeed="9.0107824" id="324" type="passenger">
		<route edges="4799 4527 4626"/>
	</vehicle>
	<vehicle depart="0.1" departLane="0" departPos="4.973266135627446" departSpeed="8.034002" id="329" type="passenger">
		<route edges=":74_1 4528"/>
	</vehicle>
	<vehicle depart="0.1" departLane="0" departPos="10.044164502379616" departSpeed="0.0" id="360" type="passenger">
		<route edges="4528 4531"/>
	</vehicle>
	<vehicle depart="0.1" departLane="0" departPos="2.5" departSpeed="2.0662177" id="370" type="passenger">
		<route edges=":74_5 4626"/>
	</vehicle>
	<vehicle depart="0.1" departLane="0" departPos="31.41621393700549" departSpeed="2.1501088" id="373" type="passenger">
		<route edges="4608 4626"/>
	</vehicle>
</routes>
