<routes>
	<vehicle depart="0.1" departLane="0" departPos="4.682969250461802" departSpeed="6.9359476" id="313" type="bicycle">
		<route edges="200 135"/>
	</vehicle>
	<vehicle depart="0.1" departLane="0" departPos="39.6153245093378" departSpeed="6.894264" id="332" type="bicycle">
		<route edges="784 204"/>
	</vehicle>
	<vehicle depart="0.1" departLane="0" departPos="25.998519160729284" departSpeed="9.4374946" id="337" type="bus">
		<route edges="135"/>
	</vehicle>
	<vehicle depart="0.1" departLane="0" departPos="8.90459310702126" departSpeed="5.4888602" id="36" type="passenger">
		<route edges=":28_0 135"/>
	</vehicle>
	<vehicle depart="0.1" departLane="0" departPos="50.106109457548804" departSpeed="0.0" id="38" type="passenger">
		<route edges="784 204"/>
	</vehicle>
	<vehicle depart="0.1" departLane="0" departPos="42.87462302638589" departSpeed="0.0" id="314" type="passenger">
		<route edges="784 204"/>
	</vehicle>
	<vehicle depart="0.1" departLane="0" departPos="36.02687113559342" departSpeed="3.2111259e-05" id="316" type="passenger">
		<route edges="784 204"/>
	</vehicle>
	<vehicle depart="0.1" departLane="0" departPos="24.51453703012596" departSpeed="2.4197379" id="320" type="passenger">
		<route edges="200 135"/>
	</vehicle>
	<vehicle depart="0.1" departLane="0" departPos="2.5" departSpeed="4.0154429" id="322" type="passenger">
		<route edges=":25_0 785"/>
	</vehicle>
	<vehicle depart="0.1" departLane="0" departPos="24.59428988400917" departSpeed="0.0013696278" id="323" type="passenger">
		<route edges="784 204"/>
	</vehicle>
	<vehicle depart="0.1" departLane="0" departPos="38.308435523427605" departSpeed="0.0" id="324" type="passenger">
		<route edges="201 785"/>
	</vehicle>
	<vehicle depart="0.1" departLane="0" departPos="31.14611772836085" departSpeed="0.0001716001" id="326" type="passenger">
		<route edges="201 785"/>
	</vehicle>
	<vehicle depart="0.1" departLane="0" departPos="84.14344000831552" departSpeed="3.1445891" id="327" type="passenger">
		<route edges="203 200 135"/>
	</vehicle>
	<vehicle depart="0.1" departLane="0" departPos="71.62385940334242" departSpeed="4.4530799" id="328" type="passenger">
		<route edges="203 200 135"/>
	</vehicle>
	<vehicle depart="0.1" departLane="0" departPos="13.37995832156111" departSpeed="0.016831503" id="330" type="passenger">
		<route edges="784 204"/>
	</vehicle>
	<vehicle depart="0.1" departLane="0" departPos="54.175045343876455" departSpeed="7.3109916" id="331" type="passenger">
		<route edges="203 200 135"/>
	</vehicle>
	<vehicle depart="0.1" departLane="0" departPos="23.084331024352455" departSpeed="0.95852149" id="333" type="passenger">
		<route edges="201 785"/>
	</vehicle>
	<vehicle depart="0.1" departLane="0" departPos="6.591657376272255" departSpeed="0.040558781" id="335" type="passenger">
		<route edges="784 204"/>
	</vehicle>
	<vehicle depart="0.1" departLane="0" departPos="7.192646990424288" departSpeed="6.8638713" id="336" type="passenger">
		<route edges=":26_4 203 200"/>
	</vehicle>
	<vehicle depart="0.1" departLane="0" departPos="2.5" departSpeed="0.0" id="338" type="passenger">
		<route edges=":28_1 135"/>
	</vehicle>
	<vehicle depart="0.1" departLane="0" departPos="47.269287636592985" departSpeed="10.615906" id="339" type="passenger">
		<route edges="359 1539"/>
	</vehicle>
	<vehicle depart="0.1" departLane="0" departPos="29.078367867934205" departSpeed="0.0002833802" id="319" type="motorcycle">
		<route edges="784 204"/>
	</vehicle>
	<vehicle depart="0.1" departLane="0" departPos="17.74358512394087" departSpeed="0.0054295306" id="325" type="motorcycle">
		<route edges="784 204"/>
	</vehicle>
	<vehicle depart="0.1" departLane="0" departPos="22.85695835275253" departSpeed="12.28964" id="334" type="motorcycle">
		<route edges="203 200 135"/>
	</vehicle>
</routes>
