<!-- generated on 2020-12-18 16:00:36.714738 by ipykernel_launcher.py v1_2_0+5214-53edc58fcd
-->
<edges>
	<edge from="1" function="normal" id="3431" length="7.7466321069223305" numLanes="5" priority="1" speed="36.11111111111111" spreadType="center" to="2">
		<lane allow="moped bicycle pedestrian custom1 trailer evehicle rail_urban ship private truck vip custom2 authority delivery rail_electric taxi tram army hov coach motorcycle passenger bus rail emergency" index="0" length="7.7466321069223305" shape="3.5509500000000003,53.568 0.008850000000000025,46.557500000000005" speed="36.11111111111111" width="2.841755522559956"/>
		<lane allow="moped bicycle pedestrian custom1 trailer evehicle rail_urban ship private truck vip custom2 authority delivery rail_electric taxi tram army hov coach motorcycle passenger bus rail emergency" index="1" length="7.7466321069223305" shape="6.1782,52.219300000000004 2.69535,45.2114" speed="36.11111111111111" width="3.064659380746904"/>
		<lane allow="moped bicycle pedestrian custom1 trailer evehicle rail_urban ship private truck vip custom2 authority delivery rail_electric taxi tram army hov coach motorcycle passenger bus rail emergency" index="2" length="7.7466321069223305" shape="8.88925,50.82755 5.4416,43.852900000000005" speed="36.11111111111111" width="3.030177833065249"/>
		<lane allow="moped bicycle pedestrian custom1 trailer evehicle rail_urban ship private truck vip custom2 authority delivery rail_electric taxi tram army hov coach motorcycle passenger bus rail emergency" index="3" length="7.7466321069223305" shape="11.6075,49.4321 8.1761,42.486900000000006" speed="36.11111111111111" width="3.052837840436338"/>
		<lane allow="moped bicycle pedestrian custom1 trailer evehicle rail_urban ship private truck vip custom2 authority delivery rail_electric taxi tram army hov coach motorcycle passenger bus rail emergency" index="4" length="7.7466321069223305" shape="14.332799999999999,48.03305 10.90185,41.0441" speed="36.11111111111111" width="3.0460097258544665"/>
	</edge>
	<edge from="2" function="normal" id="3438" length="8.438893355322135" numLanes="6" priority="1" speed="36.11111111111111" spreadType="center" to="3">
		<lane allow="moped bicycle pedestrian custom1 trailer evehicle rail_urban ship private truck vip custom2 authority delivery rail_electric taxi tram army hov coach motorcycle passenger bus rail emergency" index="0" length="8.438893355322135" shape="0.008850000000000025,46.557500000000005 -6.666,40.28075" speed="36.11111111111111" width="2.94351281464851"/>
		<lane allow="moped bicycle pedestrian custom1 trailer evehicle rail_urban ship private truck vip custom2 authority delivery rail_electric taxi tram army hov coach motorcycle passenger bus rail emergency" index="1" length="8.438893355322135" shape="0.008850000000000025,46.557500000000005 -3.8247,38.94785" speed="36.11111111111111" width="2.94351281464851"/>
		<lane allow="moped bicycle pedestrian custom1 trailer evehicle rail_urban ship private truck vip custom2 authority delivery rail_electric taxi tram army hov coach motorcycle passenger bus rail emergency" index="2" length="8.438893355322135" shape="2.69535,45.2114 -1.0761500000000002,37.616299999999995" speed="36.11111111111111" width="3.0546153096584856"/>
		<lane allow="moped bicycle pedestrian custom1 trailer evehicle rail_urban ship private truck vip custom2 authority delivery rail_electric taxi tram army hov coach motorcycle passenger bus rail emergency" index="3" length="8.438893355322135" shape="5.4416,43.852900000000005 1.6548999999999998,36.27345" speed="36.11111111111111" width="3.0324580145485918"/>
		<lane allow="moped bicycle pedestrian custom1 trailer evehicle rail_urban ship private truck vip custom2 authority delivery rail_electric taxi tram army hov coach motorcycle passenger bus rail emergency" index="4" length="8.438893355322135" shape="8.1761,42.486900000000006 4.373799999999999,34.892250000000004" speed="36.11111111111111" width="3.052837840436338"/>
		<lane allow="moped bicycle pedestrian custom1 trailer evehicle rail_urban ship private truck vip custom2 authority delivery rail_electric taxi tram army hov coach motorcycle passenger bus rail emergency" index="5" length="8.438893355322135" shape="10.90185,41.0441 7.1617,33.479299999999995" speed="36.11111111111111" width="3.115279160845783"/>
	</edge>
	<edge from="3" function="normal" id="3450" length="24.494871241480368" numLanes="6" priority="1" speed="36.11111111111111" spreadType="center" to="4">
		<lane allow="moped bicycle pedestrian custom1 trailer evehicle rail_urban ship private truck vip custom2 authority delivery rail_electric taxi tram army hov coach motorcycle passenger bus rail emergency" index="0" length="24.494871241480368" shape="-6.666,40.28075 -9.8307,34.0467 -13.619,26.35955 -17.7047,18.414949999999997" speed="36.11111111111111" width="3.2241062653082633"/>
		<lane allow="moped bicycle pedestrian custom1 trailer evehicle rail_urban ship private truck vip custom2 authority delivery rail_electric taxi tram army hov coach motorcycle passenger bus rail emergency" index="1" length="24.494871241480368" shape="-3.8247,38.94785 -6.8322,32.896249999999995 -10.65515,24.948 -14.759,16.81125" speed="36.11111111111111" width="2.866561921535972"/>
		<lane allow="moped bicycle pedestrian custom1 trailer evehicle rail_urban ship private truck vip custom2 authority delivery rail_electric taxi tram army hov coach motorcycle passenger bus rail emergency" index="2" length="24.494871241480368" shape="-1.0761500000000002,37.616299999999995 -4.09915,31.56485 -7.95295,23.61705 -12.116499999999998,15.4927" speed="36.11111111111111" width="3.004221073756058"/>
		<lane allow="moped bicycle pedestrian custom1 trailer evehicle rail_urban ship private truck vip custom2 authority delivery rail_electric taxi tram army hov coach motorcycle passenger bus rail emergency" index="3" length="24.494871241480368" shape="1.6548999999999998,36.27345 -1.4315,30.1152 -5.3162,22.1678 -9.33185,14.1183" speed="36.11111111111111" width="3.0189875720181423"/>
		<lane allow="moped bicycle pedestrian custom1 trailer evehicle rail_urban ship private truck vip custom2 authority delivery rail_electric taxi tram army hov coach motorcycle passenger bus rail emergency" index="4" length="24.494871241480368" shape="4.373799999999999,34.892250000000004 1.25535,28.65755 -2.62935,20.71015 -6.56875,12.725" speed="36.11111111111111" width="3.018395509206837"/>
		<lane allow="moped bicycle pedestrian custom1 trailer evehicle rail_urban ship private truck vip custom2 authority delivery rail_electric taxi tram army hov coach motorcycle passenger bus rail emergency" index="5" length="24.494871241480368" shape="7.1617,33.479299999999995 3.94925,27.15365 0.06455,19.20625 -3.87295,11.351849999999999" speed="36.11111111111111" width="3.0323687935341903"/>
	</edge>
	<edge from="4" function="normal" id="3664" length="45.62159337177896" numLanes="2" priority="1" speed="36.11111111111111" spreadType="center" to="5">
		<lane allow="moped bicycle pedestrian custom1 trailer evehicle rail_urban ship private vip custom2 authority delivery rail_electric taxi tram army hov coach motorcycle passenger rail emergency" index="0" length="45.62159337177896" shape="-6.56875,12.725 -10.327100000000002,5.3436 -12.4625,0.93565 -13.5274,-1.59625 -14.00085,-3.6441 -14.12865,-6.009499999999999 -13.6872,-8.796199999999999 -12.952100000000002,-11.362400000000001 -11.88565,-13.30115 -10.4728,-15.44755 -7.352549999999999,-18.4225 -1.30795,-21.9052 7.7048000000000005,-26.6199" speed="36.11111111111111" width="2.934935747167219"/>
		<lane allow="moped bicycle pedestrian custom1 trailer evehicle rail_urban ship private vip custom2 authority delivery rail_electric taxi tram army hov coach motorcycle passenger rail emergency" index="1" length="45.62159337177896" shape="-3.87295,11.351849999999999 -7.22435,4.5756499999999996 -8.83225,0.53025 -9.49605,-1.8610000000000002 -9.772400000000001,-3.64235 -9.9404,-5.67515 -9.71115,-7.7829 -9.0629,-9.54875 -8.09655,-11.1298 -6.77055,-12.74905 -4.2977,-15.317450000000001 0.9669,-19.0758 9.249649999999999,-23.5283" speed="36.11111111111111" width="3.0323687935341903"/>
	</edge>
	<edge from="5" function="normal" id="3495" length="15.184501575044738" numLanes="3" priority="1" speed="36.11111111111111" spreadType="center" to="6">
		<lane allow="moped bicycle pedestrian custom1 trailer evehicle rail_urban ship private truck vip custom2 authority delivery rail_electric taxi tram army hov coach motorcycle passenger bus rail emergency" index="0" length="15.184501575044738" shape="6.0817499999999995,-29.948 14.80905,-34.24305 19.71685,-36.65835" speed="36.11111111111111" width="3.8765859644795713"/>
		<lane allow="moped bicycle pedestrian custom1 trailer evehicle rail_urban ship private truck vip custom2 authority delivery rail_electric taxi tram army hov coach motorcycle passenger bus rail emergency" index="1" length="15.184501575044738" shape="7.7048000000000005,-26.6199 16.43195,-30.913449999999997 21.35055,-33.33325" speed="36.11111111111111" width="3.511789538113013"/>
		<lane allow="moped bicycle pedestrian custom1 trailer evehicle rail_urban ship private truck vip custom2 authority delivery rail_electric taxi tram army hov coach motorcycle passenger bus rail emergency" index="2" length="15.184501575044738" shape="9.249649999999999,-23.5283 17.928449999999998,-27.7969 22.87525,-30.229950000000002" speed="36.11111111111111" width="3.3823138145358436"/>
	</edge>
	<edge from="4" function="normal" id="3610" length="13.55388243428797" numLanes="3" priority="1" speed="36.11111111111111" spreadType="center" to="7">
		<lane allow="moped bicycle pedestrian custom1 trailer evehicle rail_urban ship private truck vip custom2 authority delivery rail_electric taxi tram army hov coach motorcycle passenger bus rail emergency" index="0" length="13.55388243428797" shape="-14.759,16.81125 -20.7957,4.63535" speed="36.11111111111111" width="2.866561921535972"/>
		<lane allow="moped bicycle pedestrian custom1 trailer evehicle rail_urban ship private truck vip custom2 authority delivery rail_electric taxi tram army hov coach motorcycle passenger bus rail emergency" index="1" length="13.55388243428797" shape="-12.116499999999998,15.4927 -18.06675,3.3015" speed="36.11111111111111" width="3.017383603388869"/>
		<lane allow="moped bicycle pedestrian custom1 trailer evehicle rail_urban ship private truck vip custom2 authority delivery rail_electric taxi tram army hov coach motorcycle passenger bus rail emergency" index="2" length="13.55388243428797" shape="-9.33185,14.1183 -15.31065,1.9543499999999998" speed="36.11111111111111" width="3.118054550517038"/>
	</edge>
	<edge from="7" function="normal" id="3646" length="16.509632755735122" numLanes="3" priority="1" speed="36.11111111111111" spreadType="center" to="8">
		<lane allow="moped bicycle pedestrian custom1 trailer evehicle rail_urban ship private truck vip custom2 authority delivery rail_electric taxi tram army hov coach motorcycle passenger bus rail emergency" index="0" length="16.509632755735122" shape="-20.7957,4.63535 -22.2297,1.74295 -23.862949999999998,-1.5516 -25.26805,-4.3854999999999995 -26.65345,-7.1799 -28.12905,-10.1562" speed="36.11111111111111" width="3.0575892938718896"/>
		<lane allow="moped bicycle pedestrian custom1 trailer evehicle rail_urban ship private truck vip custom2 authority delivery rail_electric taxi tram army hov coach motorcycle passenger bus rail emergency" index="1" length="16.509632755735122" shape="-18.06675,3.3015 -19.496000000000002,0.3733 -21.11025,-2.9341999999999997 -22.5013,-5.782299999999999 -23.8812,-8.60775 -25.35,-11.615" speed="36.11111111111111" width="2.9903827313573097"/>
		<lane allow="moped bicycle pedestrian custom1 trailer evehicle rail_urban ship private truck vip custom2 authority delivery rail_electric taxi tram army hov coach motorcycle passenger bus rail emergency" index="2" length="16.509632755735122" shape="-15.31065,1.9543499999999998 -16.76125,-0.9968999999999999 -18.386400000000002,-4.3033 -19.787399999999998,-7.1524 -21.1858,-9.99605 -22.67295,-13.020150000000001" speed="36.11111111111111" width="3.0564489100915773"/>
	</edge>
	<edge from="8" function="normal" id="3626" length="12.190574110865331" numLanes="3" priority="1" speed="36.11111111111111" spreadType="center" to="9">
		<lane allow="moped bicycle pedestrian custom1 trailer evehicle rail_urban ship private truck vip custom2 authority delivery rail_electric taxi tram army hov coach motorcycle passenger bus rail emergency" index="0" length="12.190574110865331" shape="-28.12905,-10.1562 -33.54435,-21.07795" speed="36.11111111111111" width="3.2869467488841364"/>
		<lane allow="moped bicycle pedestrian custom1 trailer evehicle rail_urban ship private truck vip custom2 authority delivery rail_electric taxi tram army hov coach motorcycle passenger bus rail emergency" index="1" length="12.190574110865331" shape="-25.35,-11.615 -30.7007,-22.5706" speed="36.11111111111111" width="2.969358961122757"/>
		<lane allow="moped bicycle pedestrian custom1 trailer evehicle rail_urban ship private truck vip custom2 authority delivery rail_electric taxi tram army hov coach motorcycle passenger bus rail emergency" index="2" length="12.190574110865331" shape="-22.67295,-13.020150000000001 -28.05265,-23.960549999999998" speed="36.11111111111111" width="3.011988648716988"/>
	</edge>
	<edge from="9" function="normal" id="3542" length="42.04503365774769" numLanes="3" priority="1" speed="36.11111111111111" spreadType="center" to="10">
		<lane allow="moped bicycle pedestrian custom1 trailer evehicle rail_urban ship private truck vip custom2 authority delivery rail_electric taxi tram army hov coach motorcycle passenger rail emergency" index="0" length="42.04503365774769" shape="-33.54435,-21.07795 -37.70565,-29.61665 -41.7589,-38.54665 -45.530950000000004,-47.26515 -49.155699999999996,-56.509100000000004 -50.47345,-59.72225" speed="36.11111111111111" width="2.8481341330772993"/>
		<lane allow="moped bicycle pedestrian custom1 trailer evehicle rail_urban ship private truck vip custom2 authority delivery rail_electric taxi tram army hov coach motorcycle passenger bus rail emergency" index="1" length="42.04503365774769" shape="-30.7007,-22.5706 -34.9441,-31.1254 -39.026250000000005,-39.9088 -42.7669,-48.596999999999994 -46.4209,-57.717299999999994 -47.76695,-61.05585" speed="36.11111111111111" width="2.969358961122757"/>
		<lane allow="moped bicycle pedestrian custom1 trailer evehicle rail_urban ship private truck vip custom2 authority delivery rail_electric taxi tram army hov coach motorcycle passenger bus rail emergency" index="2" length="42.04503365774769" shape="-28.05265,-23.960549999999998 -32.27545,-32.6405 -36.3258,-41.3628 -40.09735,-50.0506 -43.5922,-58.84995 -45.004900000000006,-62.4168" speed="36.11111111111111" width="2.962201547835665"/>
	</edge>
	<edge from="4" function="normal" id="3604" length="15.837809304392046" numLanes="1" priority="1" speed="36.11111111111111" spreadType="center" to="11">
		<lane allow="moped bicycle pedestrian custom1 trailer evehicle rail_urban ship private vip custom2 authority delivery rail_electric taxi tram army hov coach motorcycle passenger rail emergency" index="0" length="15.837809304392046" shape="-17.7047,18.414949999999997 -18.74695,17.14085 -20.005699999999997,15.589 -21.3937,14.19275 -23.274099999999997,12.95745 -24.9753,12.373650000000001 -26.771500000000003,12.17595 -28.693199999999997,12.39545 -31.0092,13.147649999999999" speed="36.11111111111111" width="3.8433909311960432"/>
	</edge>
	<edge from="11" function="normal" id="3487" length="21.42834305383199" numLanes="3" priority="1" speed="36.11111111111111" spreadType="center" to="12">
		<lane allow="moped bicycle pedestrian custom1 trailer evehicle rail_urban ship private truck vip custom2 authority delivery rail_electric taxi tram army hov coach motorcycle passenger bus rail emergency" index="0" length="21.42834305383199" shape="-31.0092,13.147649999999999 -40.2227,17.587049999999998 -49.0596,22.40575 -50.055949999999996,22.95095" speed="36.11111111111111" width="4.576431161942677"/>
		<lane allow="moped bicycle pedestrian custom1 trailer evehicle rail_urban ship private truck vip custom2 authority delivery rail_electric taxi tram army hov coach motorcycle passenger bus rail emergency" index="1" length="21.42834305383199" shape="-32.7265,8.6937 -42.11695,13.73575 -50.763400000000004,18.90575 -51.790350000000004,19.522199999999998" speed="36.11111111111111" width="3.1084813092569807"/>
		<lane allow="moped bicycle pedestrian custom1 trailer evehicle rail_urban ship private truck vip custom2 authority delivery rail_electric taxi tram army hov coach motorcycle passenger bus rail emergency" index="2" length="21.42834305383199" shape="-33.8622,5.4626 -43.6439,10.71025 -52.290350000000004,15.88025 -53.319950000000006,16.498350000000002" speed="36.11111111111111" width="3.664585112942528"/>
	</edge>
	<edge from="13" function="normal" id="3479" length="22.651817425696017" numLanes="3" priority="1" speed="36.11111111111111" spreadType="center" to="14">
		<lane allow="moped bicycle pedestrian custom1 trailer evehicle rail_urban ship private truck vip custom2 authority delivery rail_electric taxi tram army hov coach motorcycle passenger bus rail emergency" index="0" length="22.651817425696017" shape="-58.18325,6.88405 -57.0407,6.306150000000001 -47.4607,1.5538 -37.85025,-3.22975" speed="36.11111111111111" width="3.231198096681786"/>
		<lane allow="moped bicycle pedestrian custom1 trailer evehicle rail_urban ship private truck vip custom2 authority delivery rail_electric taxi tram army hov coach motorcycle passenger rail emergency" index="1" length="22.651817425696017" shape="-56.77175,9.67445 -55.60995,9.08675 -46.02995,4.3344000000000005 -36.41945,-0.44915" speed="36.11111111111111" width="3.022973122606286"/>
		<lane allow="moped bicycle pedestrian custom1 trailer evehicle rail_urban ship private truck vip custom2 authority delivery rail_electric taxi tram army hov coach motorcycle passenger rail emergency" index="2" length="22.651817425696017" shape="-55.3992,12.38785 -54.203599999999994,11.78305 -44.623599999999996,7.0306999999999995 -35.112700000000004,2.3101000000000003" speed="36.11111111111111" width="3.0586164927953954"/>
	</edge>
	<edge from="14" function="normal" id="3672" length="43.42964317851892" numLanes="1" priority="1" speed="36.11111111111111" spreadType="center" to="15">
		<lane allow="moped bicycle pedestrian custom1 trailer evehicle rail_urban ship private vip custom2 authority delivery rail_electric taxi tram army hov coach motorcycle passenger rail emergency" index="0" length="43.42964317851892" shape="-35.112700000000004,2.3101000000000003 -29.9555,-0.23024999999999995 -26.372700000000002,-1.71475 -22.52685,-3.0734 -19.74615,-4.0437 -17.2602,-4.54055 -15.02535,-4.75295 -12.68915,-4.63595 -11.04465,-4.50155 -9.935199999999998,-4.2453 -8.99545,-3.6623 -8.0762,-2.3121 -6.9205,-0.38375000000000004 -4.25305,3.8537 -2.6793,6.90545 -1.20755,10.0176" speed="36.11111111111111" width="2.917182176347579"/>
	</edge>
	<edge from="15" function="normal" id="3456" length="24.710920579823167" numLanes="3" priority="1" speed="36.11111111111111" spreadType="center" to="16">
		<lane allow="moped bicycle pedestrian custom1 trailer evehicle rail_urban ship private truck vip custom2 authority delivery rail_electric taxi tram army hov coach motorcycle passenger bus rail emergency" index="0" length="24.710920579823167" shape="4.319100000000001,7.2579 7.914899999999999,14.4515 11.76825,22.3686 15.1309,29.477" speed="36.11111111111111" width="3.047668597469218"/>
		<lane allow="moped bicycle pedestrian custom1 trailer evehicle rail_urban ship private truck vip custom2 authority delivery rail_electric taxi tram army hov coach motorcycle passenger bus rail emergency" index="1" length="24.710920579823167" shape="1.49025,8.65215 5.35035,16.21905 9.0286,23.78465 12.46745,30.8151" speed="36.11111111111111" width="2.914824113046961"/>
		<lane allow="moped bicycle pedestrian custom1 trailer evehicle rail_urban ship private truck vip custom2 authority delivery rail_electric taxi tram army hov coach motorcycle passenger bus rail emergency" index="2" length="24.710920579823167" shape="-1.20755,10.0176 2.7209499999999998,17.7798 6.5094,25.482349999999997 9.88095,32.12895" speed="36.11111111111111" width="2.888004380190582"/>
	</edge>
	<edge from="16" function="normal" id="3462" length="8.466645302154804" numLanes="3" priority="1" speed="36.11111111111111" spreadType="center" to="17">
		<lane allow="moped bicycle pedestrian custom1 trailer evehicle rail_urban ship private truck vip custom2 authority delivery rail_electric taxi tram army hov coach motorcycle passenger bus rail emergency" index="0" length="8.466645302154804" shape="15.1309,29.477 19.010199999999998,37.03975" speed="36.11111111111111" width="3.047668597469218"/>
		<lane allow="moped bicycle pedestrian custom1 trailer evehicle rail_urban ship private truck vip custom2 authority delivery rail_electric taxi tram army hov coach motorcycle passenger bus rail emergency" index="1" length="8.466645302154804" shape="12.46745,30.8151 16.28555,38.424800000000005" speed="36.11111111111111" width="2.914824113046961"/>
		<lane allow="moped bicycle pedestrian custom1 trailer evehicle rail_urban ship private truck vip custom2 authority delivery rail_electric taxi tram army hov coach motorcycle passenger bus rail emergency" index="2" length="8.466645302154804" shape="9.88095,32.12895 13.6216,39.724450000000004" speed="36.11111111111111" width="2.888004380190582"/>
	</edge>
	<edge from="17" function="normal" id="3470" length="7.644506528383637" numLanes="3" priority="1" speed="36.11111111111111" spreadType="center" to="18">
		<lane allow="moped bicycle pedestrian custom1 trailer evehicle rail_urban ship private truck vip custom2 authority delivery rail_electric taxi tram army hov coach motorcycle passenger bus rail emergency" index="0" length="7.644506528383637" shape="19.010199999999998,37.03975 22.401600000000002,43.8908" speed="36.11111111111111" width="3.054999162029347"/>
		<lane allow="moped bicycle pedestrian custom1 trailer evehicle rail_urban ship private truck vip custom2 authority delivery rail_electric taxi tram army hov coach motorcycle passenger bus rail emergency" index="1" length="7.644506528383637" shape="16.28555,38.424800000000005 19.701050000000002,45.27715" speed="36.11111111111111" width="2.998011102381046"/>
		<lane allow="moped bicycle pedestrian custom1 trailer evehicle rail_urban ship private truck vip custom2 authority delivery rail_electric taxi tram army hov coach motorcycle passenger bus rail emergency" index="2" length="7.644506528383637" shape="13.6216,39.724450000000004 17.02355,46.6517" speed="36.11111111111111" width="2.93508757109562"/>
	</edge>
	<edge from="14" function="normal" id="3636" length="10.130444963203734" numLanes="2" priority="1" speed="36.11111111111111" spreadType="center" to="19">
		<lane allow="moped bicycle pedestrian custom1 trailer evehicle rail_urban ship private truck vip custom2 authority delivery rail_electric taxi tram army hov coach motorcycle passenger bus rail emergency" index="0" length="10.130444963203734" shape="-37.85025,-3.22975 -28.83915,-7.915100000000001" speed="36.11111111111111" width="3.232186618993405"/>
		<lane allow="moped bicycle pedestrian custom1 trailer evehicle rail_urban ship private truck vip custom2 authority delivery rail_electric taxi tram army hov coach motorcycle passenger bus rail emergency" index="1" length="10.130444963203734" shape="-36.41945,-0.44915 -27.394750000000002,-5.0514" speed="36.11111111111111" width="3.025465626973804"/>
	</edge>
	<edge from="19" function="normal" id="3658" length="24.83401336288985" numLanes="2" priority="1" speed="36.11111111111111" spreadType="center" to="20">
		<lane allow="moped bicycle pedestrian custom1 trailer evehicle rail_urban ship private truck vip custom2 authority delivery rail_electric taxi tram army hov coach motorcycle passenger bus rail emergency" index="0" length="24.83401336288985" shape="-28.83915,-7.915100000000001 -25.943350000000002,-9.421 -23.28785,-10.80175 -20.5709,-12.21445 -17.5826,-13.76835 -14.88095,-15.17325 -12.23625,-16.5484 -9.520700000000001,-17.9604 -6.748950000000001,-19.40165" speed="36.11111111111111" width="3.308908788407441"/>
		<lane allow="moped bicycle pedestrian custom1 trailer evehicle rail_urban ship private truck vip custom2 authority delivery rail_electric taxi tram army hov coach motorcycle passenger bus rail emergency" index="1" length="24.83401336288985" shape="-27.394750000000002,-5.0514 -24.52675,-6.513999999999999 -21.85575,-7.876049999999999 -19.117449999999998,-9.2724 -16.15285,-10.78415 -13.4424,-12.1664 -10.792449999999999,-13.51765 -8.058,-14.911950000000001 -5.2712,-16.3331" speed="36.11111111111111" width="3.105783426126169"/>
	</edge>
	<edge from="20" function="normal" id="3676" length="16.15592838945517" numLanes="2" priority="1" speed="36.11111111111111" spreadType="center" to="5">
		<lane allow="moped bicycle pedestrian custom1 trailer evehicle rail_urban ship private truck vip custom2 authority delivery rail_electric taxi tram army hov coach motorcycle passenger bus rail emergency" index="0" length="16.15592838945517" shape="-6.748950000000001,-19.40165 -0.7292500000000001,-22.407899999999998 7.7048000000000005,-26.6199" speed="36.11111111111111" width="3.5034549033775226"/>
		<lane allow="moped bicycle pedestrian custom1 trailer evehicle rail_urban ship private truck vip custom2 authority delivery rail_electric taxi tram army hov coach motorcycle passenger bus rail emergency" index="1" length="16.15592838945517" shape="-5.2712,-16.3331 0.75345,-19.3184 9.249649999999999,-23.5283" speed="36.11111111111111" width="3.3082245268421544"/>
	</edge>
	<edge from="14" function="normal" id="3600" length="24.197467511365538" numLanes="1" priority="1" speed="36.11111111111111" spreadType="center" to="9">
		<lane allow="moped bicycle pedestrian custom1 trailer evehicle rail_urban ship private vip custom2 authority delivery rail_electric taxi tram army hov coach motorcycle passenger rail emergency" index="0" length="24.197467511365538" shape="-37.85025,-3.22975 -33.36195,-5.6247 -31.36895,-6.8148 -29.765900000000002,-7.7254000000000005 -29.0228,-8.205350000000001 -28.5987,-8.79295 -28.5629,-9.5999 -28.970100000000002,-11.011500000000002 -29.771,-12.97765 -30.75145,-15.076 -33.54435,-21.07795" speed="36.11111111111111" width="3.232186618993405"/>
	</edge>
	<edge from="21" function="normal" id="3502" length="11.539017429977406" numLanes="2" priority="1" speed="36.11111111111111" spreadType="center" to="22">
		<lane allow="moped bicycle pedestrian custom1 trailer evehicle rail_urban ship private truck vip custom2 authority delivery rail_electric taxi tram army hov coach motorcycle passenger bus rail emergency" index="0" length="11.539017429977406" shape="27.41875,-20.9827 22.36905,-18.5143 17.02465,-15.90175" speed="36.11111111111111" width="3.6072313177837665"/>
		<lane allow="moped bicycle pedestrian custom1 trailer evehicle rail_urban ship private truck vip custom2 authority delivery rail_electric taxi tram army hov coach motorcycle passenger bus rail emergency" index="1" length="11.539017429977406" shape="25.814149999999998,-24.24855 20.838549999999998,-21.8159 15.4477,-19.18045" speed="36.11111111111111" width="3.63079149773159"/>
	</edge>
	<edge from="22" function="normal" id="3528" length="6.57557739613032" numLanes="3" priority="1" speed="36.11111111111111" spreadType="center" to="23">
		<lane allow="moped bicycle pedestrian custom1 trailer evehicle rail_urban ship private truck vip custom2 authority delivery rail_electric taxi tram army hov coach motorcycle passenger bus rail emergency" index="0" length="6.57557739613032" shape="17.02465,-15.90175 12.6018,-9.8799" speed="36.11111111111111" width="3.245737241367514"/>
		<lane allow="moped bicycle pedestrian custom1 trailer evehicle rail_urban ship private truck vip custom2 authority delivery rail_electric taxi tram army hov coach motorcycle passenger bus rail emergency" index="1" length="6.57557739613032" shape="17.02465,-15.90175 11.11265,-12.96175" speed="36.11111111111111" width="3.6024336135451542"/>
		<lane allow="moped bicycle pedestrian custom1 trailer evehicle rail_urban ship private truck vip custom2 authority delivery rail_electric taxi tram army hov coach motorcycle passenger bus rail emergency" index="2" length="6.57557739613032" shape="15.4477,-19.18045 9.559650000000001,-16.253149999999998" speed="36.11111111111111" width="3.6713079753679065"/>
	</edge>
	<edge from="23" function="normal" id="3534" length="6.608363657139337" numLanes="3" priority="1" speed="36.11111111111111" spreadType="center" to="24">
		<lane allow="moped bicycle pedestrian custom1 trailer evehicle rail_urban ship private truck vip custom2 authority delivery rail_electric taxi tram army hov coach motorcycle passenger bus rail emergency" index="0" length="6.608363657139337" shape="12.6018,-9.8799 6.62225,-6.990449999999999" speed="36.11111111111111" width="3.190167196245362"/>
		<lane allow="moped bicycle pedestrian custom1 trailer evehicle rail_urban ship private truck vip custom2 authority delivery rail_electric taxi tram army hov coach motorcycle passenger bus rail emergency" index="1" length="6.608363657139337" shape="11.11265,-12.96175 5.1725,-10.017" speed="36.11111111111111" width="3.5215687697388507"/>
		<lane allow="moped bicycle pedestrian custom1 trailer evehicle rail_urban ship private truck vip custom2 authority delivery rail_electric taxi tram army hov coach motorcycle passenger bus rail emergency" index="2" length="6.608363657139337" shape="9.559650000000001,-16.253149999999998 3.6496000000000004,-13.2965" speed="36.11111111111111" width="3.677371487897299"/>
	</edge>