<!-- generated on 2020-12-18 16:00:36.801688 by ipykernel_launcher.py v1_2_0+5214-53edc58fcd
-->
<nodes>
	<node id="1" type="from" x="8.91174" y="50.815999999999995"/>
	<node id="2" type="to" x="5.44475" y="43.830560000000006"/>
	<node id="3" type="to" x="0.27059166666666634" y="36.91498333333333"/>
	<node id="4" type="to" x="-10.725625" y="14.819008333333331"/>
	<node id="5" type="to" x="8.477225" y="-25.0741"/>
	<node id="6" type="to" x="21.314216666666667" y="-33.407183333333336"/>
	<node id="7" type="to" x="-18.0577" y="3.2970666666666664"/>
	<node id="8" type="to" x="-25.384" y="-11.597116666666667"/>
	<node id="9" type="to" x="-30.765900000000002" y="-22.536366666666666"/>
	<node id="10" type="to" x="-47.74843333333333" y="-61.06496666666666"/>
	<node id="11" type="to" x="-31.0092" y="13.147649999999999"/>
	<node id="12" type="to" x="-51.72208333333333" y="19.657166666666665"/>
	<node id="13" type="from" x="-56.78473333333333" y="9.648783333333334"/>
	<node id="14" type="to" x="-36.4608" y="-0.4562666666666666"/>
	<node id="15" type="to" x="-1.20755" y="10.0176"/>
	<node id="16" type="to" x="12.4931" y="30.80701666666667"/>
	<node id="17" type="to" x="16.305783333333334" y="38.39633333333334"/>
	<node id="18" type="to" x="19.708733333333335" y="45.27321666666666"/>
	<node id="19" type="to" x="-28.116950000000003" y="-6.48325"/>
	<node id="20" type="to" x="-6.0100750000000005" y="-17.867375000000003"/>
	<node id="21" type="from" x="26.61645" y="-22.615625"/>
	<node id="22" type="to" x="16.236175" y="-17.5411"/>
	<node id="23" type="to" x="11.091366666666667" y="-13.0316"/>
	<node id="24" type="to" x="5.148116666666667" y="-10.101316666666667"/>
	<node id="25" type="to" x="-1.5814249999999999" y="-8.67115"/>
	<node id="26" type="to" x="-23.6688" y="2.33475"/>
	<node id="27" type="from" x="-35.368860000000005" y="-67.16474000000001"/>
	<node id="28" type="to" x="-16.7555" y="-29.90326"/>
	<node id="29" type="to" x="-11.606016666666667" y="-18.82933333333333"/>
	<node id="30" type="to" x="-4.2459999999999996" y="-3.4538333333333333"/>
</nodes>
