<?xml version="1.0" encoding="UTF-8"?>

<!-- generated on Fri Dec 18 16:00:36 2020 by Eclipse SUMO netconvert Version 1.8.0
<configuration xmlns:xsi="http://www.w3.org/2001/XMLSchema-instance" xsi:noNamespaceSchemaLocation="http://sumo.dlr.de/xsd/netconvertConfiguration.xsd">

    <input>
        <node-files value="./converted_scenarios/NGSIM/Lankershim/USA_Lanker-1_11_I-1-1/nodes.net.xml"/>
        <edge-files value="./converted_scenarios/NGSIM/Lankershim/USA_Lanker-1_11_I-1-1/edges.net.xml"/>
        <connection-files value="./converted_scenarios/NGSIM/Lankershim/USA_Lanker-1_11_I-1-1/_connections.net.xml"/>
        <tllogic-files value="./converted_scenarios/NGSIM/Lankershim/USA_Lanker-1_11_I-1-1/_tll.net.xml"/>
    </input>

    <output>
        <output-file value="./converted_scenarios/NGSIM/Lankershim/USA_Lanker-1_11_I-1-1/USA_Lanker-1_11_I-1-1.net.xml"/>
    </output>

    <processing>
        <plain.extend-edge-shape value="true"/>
        <geometry.remove.keep-edges.explicit value="true"/>
        <geometry.avoid-overlap value="true"/>
        <offset.disable-normalization value="true"/>
    </processing>

    <junctions>
        <no-turnarounds value="true"/>
        <junctions.internal-link-detail value="20"/>
    </junctions>

    <report>
        <aggregate-warnings value="5"/>
    </report>

    <random_number>
        <seed value="1234"/>
    </random_number>

</configuration>
-->

<net version="1.6" junctionCornerDetail="5" junctionLinkDetail="20" limitTurnSpeed="5.50" xmlns:xsi="http://www.w3.org/2001/XMLSchema-instance" xsi:noNamespaceSchemaLocation="http://sumo.dlr.de/xsd/net_file.xsd">

    <location netOffset="0.00,0.00" convBoundary="-56.78,-67.16,26.62,50.82" origBoundary="-58.18,-69.89,27.42,53.57" projParameter="!"/>

    <edge id=":11_0" function="internal">
        <lane id=":11_0_0" index="0" disallow="bus truck rail_fast" speed="36.11" length="8.30" width="4.58" shape="-38.12,15.46 -30.26,12.79"/>
    </edge>
    <edge id=":11_1" function="internal">
        <lane id=":11_1_0" index="0" disallow="rail_fast" speed="36.11" length="1.01" width="3.11" shape="-31.17,7.93 -32.10,8.36"/>
        <lane id=":11_1_1" index="1" disallow="rail_fast" speed="36.11" length="1.01" width="3.66" shape="-32.50,4.79 -33.41,5.22"/>
    </edge>
    <edge id=":14_0" function="internal">
        <lane id=":14_0_0" index="0" disallow="bus truck rail_fast" speed="7.94" length="13.70" width="3.23" shape="-39.53,-2.40 -38.30,-3.01 -37.15,-3.59 -36.07,-4.16 -35.06,-4.69 -34.12,-5.20 -33.25,-5.69 -32.44,-6.15 -31.71,-6.58 -31.05,-6.99 -30.45,-7.38 -29.93,-7.74 -29.47,-8.07 -29.09,-8.38 -28.77,-8.66 -28.53,-8.92 -28.35,-9.15 -28.24,-9.36 -28.20,-9.54 -28.24,-9.69"/>
    </edge>
    <edge id=":14_1" function="internal">
        <lane id=":14_1_0" index="0" disallow="rail_fast" speed="36.11" length="13.45" width="3.23" shape="-39.53,-2.40 -27.60,-8.56"/>
        <lane id=":14_1_1" index="1" disallow="bus rail_fast" speed="36.11" length="13.45" width="3.03" shape="-38.14,0.41 -26.13,-5.70"/>
    </edge>
    <edge id=":14_3" function="internal">
        <lane id=":14_3_0" index="0" disallow="bus truck rail_fast" speed="36.11" length="2.11" width="2.92" shape="-36.78,3.14 -38.68,4.07"/>
    </edge>
    <edge id=":15_0" function="internal">
        <lane id=":15_0_0" index="0" disallow="bus truck rail_fast" speed="9.12" length="13.80" width="3.05" shape="3.95,-4.83 3.58,-4.41 3.26,-3.95 2.98,-3.47 2.75,-2.96 2.56,-2.42 2.42,-1.85 2.33,-1.25 2.28,-0.62 2.28,0.03 2.32,0.71 2.41,1.42 2.54,2.16 2.72,2.92 2.94,3.72 3.21,4.54 3.53,5.39 3.89,6.27 4.30,7.18 4.75,8.12"/>
    </edge>
    <edge id=":15_1" function="internal">
        <lane id=":15_1_0" index="0" disallow="rail_fast" speed="36.11" length="13.06" width="3.05" shape="-0.89,-3.61 4.75,8.12"/>
        <lane id=":15_1_1" index="1" disallow="rail_fast" speed="36.11" length="13.06" width="2.91" shape="-3.71,-2.26 1.94,9.53"/>
        <lane id=":15_1_2" index="2" disallow="rail_fast" speed="36.11" length="13.06" width="2.89" shape="-6.44,-0.94 -0.77,10.88"/>
    </edge>
    <edge id=":15_4" function="internal">
        <lane id=":15_4_0" index="0" disallow="bus truck rail_fast" speed="36.11" length="13.55" width="2.89" shape="-7.29,-1.00 -0.77,10.88"/>
    </edge>
    <edge id=":16_0" function="internal">
        <lane id=":16_0_0" index="0" disallow="rail_fast" speed="36.11" length="0.24" width="3.05" shape="15.08,29.37 15.18,29.58"/>
        <lane id=":16_0_1" index="1" disallow="rail_fast" speed="36.11" length="0.24" width="2.91" shape="12.41,30.71 12.52,30.92"/>
        <lane id=":16_0_2" index="2" disallow="rail_fast" speed="36.11" length="0.24" width="2.89" shape="9.82,32.00 9.93,32.23"/>
    </edge>
    <edge id=":17_0" function="internal">
        <lane id=":17_0_0" index="0" disallow="rail_fast" speed="36.11" length="3.05" width="3.05" shape="18.30,35.66 19.68,38.38"/>
        <lane id=":17_0_1" index="1" disallow="rail_fast" speed="36.11" length="3.05" width="3.00" shape="15.58,37.02 16.94,39.74"/>
        <lane id=":17_0_2" index="2" disallow="rail_fast" speed="36.11" length="3.05" width="2.94" shape="12.94,38.34 14.28,41.06"/>
    </edge>
    <edge id=":19_0" function="internal">
        <lane id=":19_0_0" index="0" disallow="rail_fast" speed="36.11" length="0.12" width="3.31" shape="-27.42,-8.65 -27.52,-8.60"/>
        <lane id=":19_0_1" index="1" disallow="rail_fast" speed="36.11" length="0.12" width="3.11" shape="-25.95,-5.79 -26.06,-5.73"/>
    </edge>
    <edge id=":2_0" function="internal">
        <lane id=":2_0_0" index="0" disallow="rail_fast" speed="21.97" length="7.43" width="2.94" shape="1.19,48.90 0.94,48.41 0.70,47.96 0.48,47.56 0.27,47.21 0.07,46.89 -0.12,46.60 -0.32,46.34 -0.51,46.09 -0.71,45.86 -0.91,45.64 -1.12,45.43 -1.35,45.21 -1.59,44.98 -1.86,44.75 -2.14,44.49 -2.46,44.21 -2.80,43.90 -3.17,43.56 -3.58,43.18"/>
        <lane id=":2_0_1" index="1" disallow="rail_fast" speed="36.11" length="7.43" width="2.94" shape="1.19,48.90 -2.11,42.35"/>
        <lane id=":2_0_2" index="2" disallow="rail_fast" speed="36.11" length="7.43" width="3.05" shape="3.86,47.56 0.53,40.85"/>
        <lane id=":2_0_3" index="3" disallow="rail_fast" speed="36.11" length="7.43" width="3.03" shape="6.59,46.18 3.19,39.34"/>
        <lane id=":2_0_4" index="4" disallow="rail_fast" speed="36.11" length="7.43" width="3.05" shape="9.32,44.80 5.85,37.83"/>
        <lane id=":2_0_5" index="5" disallow="rail_fast" speed="36.11" length="7.43" width="3.12" shape="12.07,43.42 9.08,37.35"/>
    </edge>
    <edge id=":20_0" function="internal">
        <lane id=":20_0_0" index="0" disallow="rail_fast" speed="36.11" length="3.06" width="3.50" shape="-8.15,-18.67 -5.41,-20.07"/>
        <lane id=":20_0_1" index="1" disallow="rail_fast" speed="36.11" length="3.06" width="3.31" shape="-6.64,-15.64 -3.91,-17.01"/>
    </edge>
    <edge id=":22_0" function="internal">
        <lane id=":22_0_0" index="0" disallow="rail_fast" speed="14.45" length="8.28" width="3.25" shape="20.67,-17.68 20.13,-17.42 19.64,-17.18 19.20,-16.95 18.80,-16.74 18.44,-16.54 18.11,-16.34 17.81,-16.15 17.53,-15.95 17.27,-15.75 17.02,-15.54 16.78,-15.32 16.54,-15.07 16.30,-14.80 16.05,-14.51 15.79,-14.19 15.51,-13.83 15.22,-13.43 14.89,-12.99 14.53,-12.51"/>
        <lane id=":22_0_1" index="1" disallow="rail_fast" speed="36.11" length="8.28" width="3.60" shape="20.67,-17.68 13.44,-14.12"/>
        <lane id=":22_0_2" index="2" disallow="rail_fast" speed="36.11" length="8.28" width="3.67" shape="19.08,-20.96 11.38,-17.16"/>
    </edge>
    <edge id=":23_0" function="internal">
        <lane id=":23_0_0" index="0" disallow="rail_fast" speed="9.74" length="3.41" width="3.19" shape="13.19,-10.69 13.03,-10.47 12.88,-10.28 12.73,-10.11 12.60,-9.97 12.46,-9.84 12.34,-9.73 12.21,-9.64 12.08,-9.55 11.95,-9.48 11.82,-9.41 11.68,-9.34 11.54,-9.28 11.38,-9.22 11.22,-9.16 11.04,-9.08 10.84,-9.01 10.64,-8.92 10.41,-8.82 10.16,-8.70"/>
        <lane id=":23_0_1" index="1" disallow="rail_fast" speed="36.11" length="3.41" width="3.52" shape="11.72,-13.26 8.69,-11.76"/>
        <lane id=":23_0_2" index="2" disallow="rail_fast" speed="36.11" length="3.41" width="3.68" shape="9.91,-16.43 7.11,-15.03"/>
    </edge>
    <edge id=":24_0" function="internal">
        <lane id=":24_0_0" index="0" disallow="bus truck rail_fast" speed="14.27" length="3.68" width="2.93" shape="7.54,-7.43 7.29,-7.31 7.07,-7.21 6.86,-7.12 6.68,-7.03 6.51,-6.95 6.35,-6.88 6.20,-6.81 6.07,-6.74 5.94,-6.66 5.81,-6.59 5.69,-6.51 5.56,-6.42 5.44,-6.32 5.31,-6.21 5.17,-6.09 5.02,-5.95 4.86,-5.80 4.69,-5.62 4.50,-5.42"/>
    </edge>
    <edge id=":24_1" function="internal">
        <lane id=":24_1_0" index="0" disallow="rail_fast" speed="36.11" length="11.27" width="3.46" shape="6.08,-10.47 -4.00,-5.48"/>
        <lane id=":24_1_1" index="1" disallow="rail_fast" speed="36.11" length="11.27" width="3.70" shape="4.52,-13.73 -5.56,-8.68"/>
    </edge>
    <edge id=":24_3" function="internal">
        <lane id=":24_3_0" index="0" disallow="bus truck rail_fast" speed="17.55" length="16.88" width="3.01" shape="4.52,-13.73 3.38,-13.18 2.29,-12.68 1.26,-12.23 0.27,-11.84 -0.68,-11.50 -1.59,-11.20 -2.46,-10.95 -3.31,-10.73 -4.12,-10.56 -4.92,-10.43 -5.70,-10.32 -6.46,-10.25 -7.21,-10.21 -7.96,-10.20 -8.70,-10.21 -9.45,-10.23 -10.20,-10.28 -10.96,-10.35 -11.74,-10.42"/>
    </edge>
    <edge id=":25_0" function="internal">
        <lane id=":25_0_0" index="0" disallow="rail_fast" speed="36.11" length="2.24" width="3.21" shape="-4.18,-5.39 -2.17,-6.38"/>
        <lane id=":25_0_1" index="1" disallow="rail_fast" speed="36.11" length="2.24" width="3.68" shape="-5.74,-8.59 -3.74,-9.59"/>
    </edge>
    <edge id=":26_0" function="internal">
        <lane id=":26_0_0" index="0" disallow="rail_fast" speed="36.11" length="14.96" width="3.17" shape="-11.84,-1.60 -25.26,5.03"/>
        <lane id=":26_0_1" index="1" disallow="rail_fast" speed="36.11" length="14.96" width="3.68" shape="-13.42,-4.74 -26.79,1.96"/>
    </edge>
    <edge id=":26_2" function="internal">
        <lane id=":26_2_0" index="0" disallow="bus truck rail_fast" speed="11.28" length="15.17" width="3.68" shape="-17.95,-9.62 -18.11,-8.80 -18.31,-8.01 -18.53,-7.24 -18.80,-6.49 -19.09,-5.76 -19.42,-5.06 -19.79,-4.38 -20.19,-3.73 -20.62,-3.09 -21.08,-2.48 -21.58,-1.90 -22.11,-1.33 -22.68,-0.79 -23.28,-0.28 -23.92,0.22 -24.58,0.69 -25.28,1.13 -26.02,1.56 -26.79,1.96"/>
    </edge>
    <edge id=":28_0" function="internal">
        <lane id=":28_0_0" index="0" disallow="bus truck rail_fast" speed="10.22" length="10.24" width="3.11" shape="-11.96,-34.69 -11.72,-34.29 -11.46,-33.90 -11.18,-33.53 -10.88,-33.16 -10.55,-32.81 -10.21,-32.47 -9.84,-32.15 -9.44,-31.84 -9.03,-31.54 -8.59,-31.25 -8.13,-30.98 -7.65,-30.72 -7.14,-30.47 -6.61,-30.23 -6.06,-30.01 -5.49,-29.80 -4.89,-29.61 -4.27,-29.43 -3.63,-29.26"/>
    </edge>
    <edge id=":28_1" function="internal">
        <lane id=":28_1_0" index="0" disallow="bus truck rail_fast" speed="11.58" length="11.05" width="3.13" shape="-15.01,-33.09 -14.65,-32.38 -14.31,-31.74 -13.98,-31.17 -13.66,-30.66 -13.34,-30.21 -13.02,-29.81 -12.70,-29.45 -12.37,-29.13 -12.03,-28.85 -11.66,-28.59 -11.27,-28.34 -10.86,-28.12 -10.41,-27.90 -9.92,-27.68 -9.39,-27.46 -8.81,-27.23 -8.19,-26.98 -7.50,-26.72 -6.76,-26.42"/>
    </edge>
    <edge id=":28_2" function="internal">
        <lane id=":28_2_0" index="0" disallow="rail_fast" speed="36.11" length="10.45" width="3.12" shape="-15.01,-33.09 -10.45,-23.53"/>
        <lane id=":28_2_1" index="1" disallow="rail_fast" speed="36.11" length="10.45" width="3.06" shape="-17.74,-31.65 -13.24,-22.22"/>
        <lane id=":28_2_2" index="2" disallow="rail_fast" speed="36.11" length="10.45" width="2.98" shape="-20.44,-30.24 -15.98,-20.93"/>
    </edge>
    <edge id=":28_5" function="internal">
        <lane id=":28_5_0" index="0" disallow="bus truck rail_fast" speed="36.11" length="10.20" width="2.87" shape="-23.12,-28.82 -22.79,-28.14 -22.48,-27.52 -22.20,-26.96 -21.95,-26.45 -21.72,-25.98 -21.50,-25.55 -21.31,-25.15 -21.12,-24.77 -20.95,-24.39 -20.78,-24.02 -20.62,-23.65 -20.46,-23.26 -20.29,-22.84 -20.12,-22.40 -19.94,-21.93 -19.74,-21.40 -19.54,-20.82 -19.31,-20.19 -19.07,-19.48"/>
    </edge>
    <edge id=":29_0" function="internal">
        <lane id=":29_0_0" index="0" disallow="rail_fast" speed="36.11" length="3.22" width="3.12" shape="-9.56,-21.68 -8.18,-18.77"/>
        <lane id=":29_0_1" index="1" disallow="rail_fast" speed="36.11" length="3.22" width="3.06" shape="-12.32,-20.28 -10.93,-17.37"/>
        <lane id=":29_0_2" index="2" disallow="rail_fast" speed="36.11" length="3.22" width="2.95" shape="-15.01,-18.91 -13.62,-16.00"/>
    </edge>
    <edge id=":3_0" function="internal">
        <lane id=":3_0_0" index="0" disallow="rail_fast" speed="15.71" length="3.50" width="3.22" shape="-3.96,42.82 -4.17,42.63 -4.36,42.47 -4.54,42.33 -4.71,42.21 -4.87,42.10 -5.02,42.00 -5.17,41.92 -5.30,41.83 -5.43,41.75 -5.56,41.67 -5.68,41.58 -5.80,41.48 -5.92,41.37 -6.04,41.25 -6.16,41.11 -6.28,40.95 -6.40,40.76 -6.52,40.55 -6.65,40.31"/>
        <lane id=":3_0_1" index="1" disallow="rail_fast" speed="36.11" length="3.50" width="2.87" shape="-2.30,41.97 -3.82,38.95"/>
        <lane id=":3_0_2" index="2" disallow="rail_fast" speed="36.11" length="3.50" width="3.00" shape="0.39,40.58 -1.08,37.62"/>
        <lane id=":3_0_3" index="3" disallow="rail_fast" speed="36.11" length="3.50" width="3.02" shape="3.11,39.18 1.65,36.27"/>
        <lane id=":3_0_4" index="4" disallow="rail_fast" speed="36.11" length="3.50" width="3.02" shape="5.80,37.74 4.37,34.89"/>
        <lane id=":3_0_5" index="5" disallow="rail_fast" speed="36.11" length="3.50" width="3.03" shape="8.99,37.17 7.16,33.48"/>
    </edge>
    <edge id=":30_0" function="internal">
        <lane id=":30_0_0" index="0" disallow="rail_fast" speed="36.11" length="2.64" width="3.14" shape="-2.13,-6.19 -0.98,-3.79"/>
        <lane id=":30_0_1" index="1" disallow="rail_fast" speed="36.11" length="2.64" width="3.10" shape="-4.94,-4.82 -3.80,-2.44"/>
        <lane id=":30_0_2" index="2" disallow="rail_fast" speed="36.11" length="2.64" width="2.93" shape="-7.66,-3.50 -6.52,-1.12"/>
    </edge>
    <edge id=":4_0" function="internal">
        <lane id=":4_0_0" index="0" disallow="bus truck rail_fast" speed="36.11" length="5.96" width="3.84" shape="-15.92,21.89 -16.12,21.50 -16.30,21.14 -16.46,20.81 -16.61,20.52 -16.74,20.25 -16.86,20.00 -16.98,19.77 -17.10,19.55 -17.21,19.34 -17.33,19.13 -17.45,18.93 -17.58,18.72 -17.72,18.50 -17.88,18.28 -18.06,18.03 -18.25,17.77 -18.48,17.49 -18.72,17.17 -19.00,16.82"/>
    </edge>
    <edge id=":4_1" function="internal">
        <lane id=":4_1_0" index="0" disallow="rail_fast" speed="36.11" length="6.33" width="2.87" shape="-12.96,20.38 -15.81,14.70"/>
        <lane id=":4_1_1" index="1" disallow="rail_fast" speed="36.11" length="6.33" width="3.02" shape="-10.30,19.03 -13.15,13.38"/>
        <lane id=":4_1_2" index="2" disallow="rail_fast" speed="36.11" length="6.33" width="3.12" shape="-7.58,17.64 -10.37,12.00"/>
    </edge>
    <edge id=":4_4" function="internal">
        <lane id=":4_4_0" index="0" disallow="bus truck rail_fast" speed="36.11" length="6.26" width="2.93" shape="-4.83,16.24 -7.63,10.64"/>
    </edge>
    <edge id=":4_5" function="internal">
        <lane id=":4_5_0" index="0" disallow="bus truck rail_fast" speed="36.11" length="6.22" width="3.03" shape="-2.12,14.85 -4.89,9.29"/>
    </edge>
    <edge id=":5_0" function="internal">
        <lane id=":5_0_0" index="0" disallow="bus truck rail_fast" speed="10.83" length="9.96" width="3.88" shape="-2.78,-29.04 -2.14,-28.88 -1.56,-28.74 -1.02,-28.62 -0.53,-28.52 -0.08,-28.43 0.35,-28.37 0.75,-28.33 1.13,-28.32 1.50,-28.32 1.86,-28.35 2.23,-28.41 2.60,-28.49 2.98,-28.60 3.39,-28.73 3.81,-28.90 4.27,-29.09 4.77,-29.32 5.31,-29.57 5.90,-29.86"/>
        <lane id=":5_0_1" index="1" disallow="bus truck rail_fast" speed="12.01" length="9.96" width="3.51" shape="-2.90,-25.48 -2.13,-25.30 -1.43,-25.14 -0.79,-25.00 -0.19,-24.88 0.35,-24.79 0.86,-24.72 1.34,-24.68 1.80,-24.66 2.25,-24.67 2.68,-24.71 3.12,-24.78 3.57,-24.88 4.03,-25.01 4.51,-25.18 5.03,-25.38 5.58,-25.61 6.18,-25.88 6.83,-26.19 7.54,-26.54"/>
    </edge>
    <edge id=":5_2" function="internal">
        <lane id=":5_2_0" index="0" disallow="bus truck rail_fast" speed="36.11" length="10.89" width="3.51" shape="-2.12,-21.44 7.54,-26.54"/>
        <lane id=":5_2_1" index="1" disallow="bus truck rail_fast" speed="36.11" length="10.89" width="3.38" shape="-0.38,-18.12 0.28,-18.59 0.88,-19.01 1.43,-19.38 1.93,-19.71 2.39,-20.01 2.81,-20.28 3.22,-20.52 3.61,-20.75 3.99,-20.96 4.36,-21.16 4.75,-21.36 5.16,-21.56 5.58,-21.76 6.04,-21.98 6.54,-22.22 7.08,-22.48 7.68,-22.76 8.34,-23.08 9.07,-23.44"/>
    </edge>
    <edge id=":5_4" function="internal">
        <lane id=":5_4_0" index="0" disallow="rail_fast" speed="36.11" length="13.99" width="3.51" shape="-4.98,-20.28 7.54,-26.54"/>
        <lane id=":5_4_1" index="1" disallow="rail_fast" speed="36.11" length="13.99" width="3.38" shape="-3.46,-17.23 9.07,-23.44"/>
    </edge>
    <edge id=":7_0" function="internal">
        <lane id=":7_0_0" index="0" disallow="rail_fast" speed="36.11" length="3.02" width="3.06" shape="-20.12,6.00 -21.46,3.29"/>
        <lane id=":7_0_1" index="1" disallow="rail_fast" speed="36.11" length="3.02" width="2.99" shape="-17.40,4.67 -18.73,1.95"/>
        <lane id=":7_0_2" index="2" disallow="rail_fast" speed="36.11" length="3.02" width="3.06" shape="-14.64,3.32 -15.97,0.60"/>
    </edge>
    <edge id=":8_0" function="internal">
        <lane id=":8_0_0" index="0" disallow="rail_fast" speed="36.11" length="0.10" width="3.29" shape="-27.44,-8.76 -27.45,-8.79"/>
        <lane id=":8_0_1" index="1" disallow="rail_fast" speed="36.11" length="0.10" width="2.97" shape="-24.65,-10.19 -24.67,-10.22"/>
        <lane id=":8_0_2" index="2" disallow="rail_fast" speed="36.11" length="0.10" width="3.01" shape="-21.96,-11.57 -21.98,-11.60"/>
    </edge>
    <edge id=":9_0" function="internal">
        <lane id=":9_0_0" index="0" disallow="bus rail_fast" speed="36.11" length="15.32" width="2.85" shape="-27.54,-8.97 -34.33,-22.70"/>
        <lane id=":9_0_1" index="1" disallow="rail_fast" speed="36.11" length="15.32" width="2.97" shape="-24.76,-10.40 -31.49,-24.16"/>
        <lane id=":9_0_2" index="2" disallow="rail_fast" speed="36.11" length="15.32" width="2.96" shape="-22.06,-11.78 -28.81,-25.53"/>
    </edge>
    <edge id=":9_3" function="internal">
        <lane id=":9_3_0" index="0" disallow="bus truck rail_fast" speed="14.99" length="18.43" width="2.96" shape="-17.53,-11.48 -18.24,-11.80 -18.93,-12.16 -19.58,-12.56 -20.22,-12.99 -20.84,-13.47 -21.43,-13.99 -22.02,-14.56 -22.59,-15.18 -23.15,-15.84 -23.70,-16.55 -24.25,-17.32 -24.80,-18.14 -25.35,-19.01 -25.90,-19.94 -26.46,-20.93 -27.03,-21.99 -27.61,-23.10 -28.20,-24.28 -28.81,-25.53"/>
    </edge>
    <edge id=":9_4" function="internal">
        <lane id=":9_4_0" index="0" disallow="bus truck rail_fast" speed="36.11" length="14.16" width="2.85" shape="-28.32,-9.87 -34.33,-22.70"/>
    </edge>

    <edge id="3431" from="1" to="2" priority="1" spreadType="center" length="7.75">
        <lane id="3431_0" index="0" disallow="rail_fast" speed="36.11" length="7.75" width="2.84" customShape="1" shape="3.50,53.47 1.19,48.90"/>
        <lane id="3431_1" index="1" disallow="rail_fast" speed="36.11" length="7.75" width="3.06" customShape="1" shape="6.18,52.22 3.86,47.56"/>
        <lane id="3431_2" index="2" disallow="rail_fast" speed="36.11" length="7.75" width="3.03" customShape="1" shape="8.89,50.83 6.59,46.18"/>
        <lane id="3431_3" index="3" disallow="rail_fast" speed="36.11" length="7.75" width="3.05" customShape="1" shape="11.63,49.48 9.32,44.80"/>
        <lane id="3431_4" index="4" disallow="rail_fast" speed="36.11" length="7.75" width="3.05" customShape="1" shape="14.38,48.13 12.07,43.42"/>
    </edge>
    <edge id="3438" from="2" to="3" priority="1" spreadType="center" length="8.44">
        <lane id="3438_0" index="0" disallow="rail_fast" speed="36.11" length="8.44" width="2.94" customShape="1" shape="-3.58,43.18 -3.96,42.82"/>
        <lane id="3438_1" index="1" disallow="rail_fast" speed="36.11" length="8.44" width="2.94" customShape="1" shape="-2.11,42.35 -2.30,41.97"/>
        <lane id="3438_2" index="2" disallow="rail_fast" speed="36.11" length="8.44" width="3.05" customShape="1" shape="0.53,40.85 0.39,40.58"/>
        <lane id="3438_3" index="3" disallow="rail_fast" speed="36.11" length="8.44" width="3.03" customShape="1" shape="3.19,39.34 3.11,39.18"/>
        <lane id="3438_4" index="4" disallow="rail_fast" speed="36.11" length="8.44" width="3.05" customShape="1" shape="5.85,37.83 5.80,37.74"/>
        <lane id="3438_5" index="5" disallow="rail_fast" speed="36.11" length="8.44" width="3.12" customShape="1" shape="9.08,37.35 8.99,37.17"/>
    </edge>
    <edge id="3450" from="3" to="4" priority="1" spreadType="center" length="24.49">
        <lane id="3450_0" index="0" disallow="rail_fast" speed="36.11" length="24.49" width="3.22" customShape="1" shape="-6.65,40.31 -9.83,34.05 -13.62,26.36 -15.92,21.89"/>
        <lane id="3450_1" index="1" disallow="rail_fast" speed="36.11" length="24.49" width="2.87" customShape="1" shape="-3.82,38.95 -6.83,32.90 -10.66,24.95 -12.96,20.38"/>
        <lane id="3450_2" index="2" disallow="rail_fast" speed="36.11" length="24.49" width="3.00" customShape="1" shape="-1.08,37.62 -4.10,31.56 -7.95,23.62 -10.30,19.03"/>
        <lane id="3450_3" index="3" disallow="rail_fast" speed="36.11" length="24.49" width="3.02" customShape="1" shape="1.65,36.27 -1.43,30.12 -5.32,22.17 -7.58,17.64"/>
        <lane id="3450_4" index="4" disallow="rail_fast" speed="36.11" length="24.49" width="3.02" customShape="1" shape="4.37,34.89 1.26,28.66 -2.63,20.71 -4.83,16.24"/>
        <lane id="3450_5" index="5" disallow="rail_fast" speed="36.11" length="24.49" width="3.03" customShape="1" shape="7.16,33.48 3.95,27.15 0.06,19.21 -2.12,14.85"/>
    </edge>
    <edge id="3456" from="15" to="16" priority="1" spreadType="center" length="24.71">
        <lane id="3456_0" index="0" disallow="rail_fast" speed="36.11" length="24.71" width="3.05" customShape="1" shape="4.75,8.12 7.91,14.45 11.77,22.37 15.08,29.37"/>
        <lane id="3456_1" index="1" disallow="rail_fast" speed="36.11" length="24.71" width="2.91" customShape="1" shape="1.94,9.53 5.35,16.22 9.03,23.78 12.41,30.71"/>
        <lane id="3456_2" index="2" disallow="rail_fast" speed="36.11" length="24.71" width="2.89" customShape="1" shape="-0.77,10.88 2.72,17.78 6.51,25.48 9.82,32.00"/>
    </edge>
    <edge id="3462" from="16" to="17" priority="1" spreadType="center" length="8.47">
        <lane id="3462_0" index="0" disallow="rail_fast" speed="36.11" length="8.47" width="3.05" customShape="1" shape="15.18,29.58 18.30,35.66"/>
        <lane id="3462_1" index="1" disallow="rail_fast" speed="36.11" length="8.47" width="2.91" customShape="1" shape="12.52,30.92 15.58,37.02"/>
        <lane id="3462_2" index="2" disallow="rail_fast" speed="36.11" length="8.47" width="2.89" customShape="1" shape="9.93,32.23 12.94,38.34"/>
    </edge>
    <edge id="3470" from="17" to="18" priority="1" spreadType="center" length="7.64">
        <lane id="3470_0" index="0" disallow="rail_fast" speed="36.11" length="7.64" width="3.05" customShape="1" shape="19.68,38.38 22.42,43.93"/>
        <lane id="3470_1" index="1" disallow="rail_fast" speed="36.11" length="7.64" width="3.00" customShape="1" shape="16.94,39.74 19.70,45.28"/>
        <lane id="3470_2" index="2" disallow="rail_fast" speed="36.11" length="7.64" width="2.94" customShape="1" shape="14.28,41.06 17.02,46.65"/>
    </edge>
    <edge id="3479" from="13" to="14" priority="1" spreadType="center" length="22.65">
        <lane id="3479_0" index="0" disallow="rail_fast" speed="36.11" length="22.65" width="3.23" customShape="1" shape="-58.18,6.88 -57.04,6.31 -47.46,1.55 -39.53,-2.40"/>
        <lane id="3479_1" index="1" disallow="bus rail_fast" speed="36.11" length="22.65" width="3.02" customShape="1" shape="-56.77,9.67 -55.61,9.09 -46.03,4.33 -38.14,0.41"/>
        <lane id="3479_2" index="2" disallow="bus rail_fast" speed="36.11" length="22.65" width="3.06" customShape="1" shape="-55.40,12.39 -54.20,11.78 -44.62,7.03 -36.78,3.14"/>
    </edge>
    <edge id="3487" from="11" to="12" priority="1" spreadType="center" length="21.43">
        <lane id="3487_0" index="0" disallow="rail_fast" speed="36.11" length="21.43" width="4.58" acceleration="1" customShape="1" shape="-30.26,12.79 -40.22,17.59 -49.06,22.41 -49.95,22.89"/>
        <lane id="3487_1" index="1" disallow="rail_fast" speed="36.11" length="21.43" width="3.11" customShape="1" shape="-32.10,8.36 -42.12,13.74 -50.76,18.91 -51.79,19.52"/>
        <lane id="3487_2" index="2" disallow="rail_fast" speed="36.11" length="21.43" width="3.66" customShape="1" shape="-33.41,5.22 -43.64,10.71 -52.29,15.88 -53.42,16.56"/>
    </edge>
    <edge id="3495" from="5" to="6" priority="1" spreadType="center" length="15.18">
        <lane id="3495_0" index="0" disallow="rail_fast" speed="36.11" length="15.18" width="3.88" customShape="1" shape="5.90,-29.86 14.81,-34.24 19.72,-36.66"/>
        <lane id="3495_1" index="1" disallow="rail_fast" speed="36.11" length="15.18" width="3.51" customShape="1" shape="7.54,-26.54 16.43,-30.91 21.35,-33.33"/>
        <lane id="3495_2" index="2" disallow="rail_fast" speed="36.11" length="15.18" width="3.38" customShape="1" shape="9.07,-23.44 17.93,-27.80 22.88,-30.23"/>
    </edge>
    <edge id="3502" from="21" to="22" priority="1" spreadType="center" length="11.54">
        <lane id="3502_0" index="0" disallow="rail_fast" speed="36.11" length="11.54" width="3.61" customShape="1" shape="27.42,-20.98 22.37,-18.51 20.67,-17.68"/>
        <lane id="3502_1" index="1" disallow="rail_fast" speed="36.11" length="11.54" width="3.63" customShape="1" shape="25.82,-24.25 20.84,-21.82 19.08,-20.96"/>
    </edge>
    <edge id="3528" from="22" to="23" priority="1" spreadType="center" length="6.58">
        <lane id="3528_0" index="0" disallow="rail_fast" speed="36.11" length="6.58" width="3.25" customShape="1" shape="14.53,-12.51 13.19,-10.69"/>
        <lane id="3528_1" index="1" disallow="rail_fast" speed="36.11" length="6.58" width="3.60" customShape="1" shape="13.44,-14.12 11.72,-13.26"/>
        <lane id="3528_2" index="2" disallow="rail_fast" speed="36.11" length="6.58" width="3.67" customShape="1" shape="11.38,-17.16 9.91,-16.43"/>
    </edge>
    <edge id="3534" from="23" to="24" priority="1" spreadType="center" length="6.61">
        <lane id="3534_0" index="0" disallow="rail_fast" speed="36.11" length="6.61" width="3.19" customShape="1" shape="10.16,-8.70 7.54,-7.43"/>
        <lane id="3534_1" index="1" disallow="rail_fast" speed="36.11" length="6.61" width="3.52" customShape="1" shape="8.69,-11.76 6.08,-10.47"/>
        <lane id="3534_2" index="2" disallow="rail_fast" speed="36.11" length="6.61" width="3.68" customShape="1" shape="7.11,-15.03 4.52,-13.73"/>
    </edge>
    <edge id="3542" from="9" to="10" priority="1" spreadType="center" length="42.05">
        <lane id="3542_0" index="0" disallow="bus rail_fast" speed="36.11" length="42.05" width="2.85" customShape="1" shape="-34.33,-22.70 -37.71,-29.62 -41.76,-38.55 -45.53,-47.27 -49.16,-56.51 -50.55,-59.91"/>
        <lane id="3542_1" index="1" disallow="rail_fast" speed="36.11" length="42.05" width="2.97" customShape="1" shape="-31.49,-24.16 -34.94,-31.13 -39.03,-39.91 -42.77,-48.60 -46.42,-57.72 -47.77,-61.06"/>
        <lane id="3542_2" index="2" disallow="rail_fast" speed="36.11" length="42.05" width="2.96" customShape="1" shape="-28.81,-25.53 -32.28,-32.64 -36.33,-41.36 -40.10,-50.05 -43.59,-58.85 -44.93,-62.22"/>
    </edge>
    <edge id="3573" from="27" to="28" priority="1" spreadType="center" length="41.48">
        <lane id="3573_0" index="0" disallow="rail_fast" speed="36.11" length="41.48" width="3.35" customShape="1" shape="-29.83,-69.89 -28.18,-66.56 -23.92,-57.99 -19.48,-49.05 -15.18,-40.59 -11.96,-34.69"/>
        <lane id="3573_1" index="1" disallow="rail_fast" speed="36.11" length="41.48" width="2.88" customShape="1" shape="-32.69,-68.48 -30.94,-64.99 -26.75,-56.62 -22.21,-47.55 -18.00,-39.12 -15.01,-33.09"/>
        <lane id="3573_2" index="2" disallow="rail_fast" speed="36.11" length="41.48" width="3.08" customShape="1" shape="-35.41,-67.14 -33.63,-63.59 -29.44,-55.22 -24.90,-46.15 -20.69,-37.73 -17.74,-31.65"/>
        <lane id="3573_3" index="3" disallow="rail_fast" speed="36.11" length="41.48" width="2.82" customShape="1" shape="-38.10,-65.82 -36.31,-62.23 -32.11,-53.86 -27.57,-44.79 -23.40,-36.32 -20.44,-30.24"/>
        <lane id="3573_4" index="4" disallow="rail_fast" speed="36.11" length="41.48" width="3.05" customShape="1" shape="-40.81,-64.49 -39.01,-60.81 -34.81,-52.43 -30.28,-43.37 -26.10,-34.89 -23.12,-28.82"/>
    </edge>
    <edge id="3600" from="14" to="9" priority="1" spreadType="center" length="24.20">
        <lane id="3600_0" index="0" disallow="bus truck rail_fast" speed="36.11" length="24.20" width="3.23" customShape="1" shape="-28.24,-9.69 -28.32,-9.87"/>
    </edge>
    <edge id="3602" from="24" to="15" priority="1" spreadType="center" length="16.41">
        <lane id="3602_0" index="0" disallow="bus truck rail_fast" speed="36.11" length="16.41" width="2.93" customShape="1" shape="4.50,-5.42 3.95,-4.83"/>
    </edge>
    <edge id="3604" from="4" to="11" priority="1" spreadType="center" length="15.84">
        <lane id="3604_0" index="0" disallow="bus truck rail_fast" speed="36.11" length="15.84" width="3.84" customShape="1" shape="-19.00,16.82 -20.01,15.59 -21.39,14.19 -23.27,12.96 -24.98,12.37 -26.77,12.18 -28.69,12.40 -38.12,15.46"/>
    </edge>