<!-- generated on Tue Feb  9 22:15:53 2021 by Eclipse SUMO netconvert Version 1.8.0
<configuration xmlns:xsi="http://www.w3.org/2001/XMLSchema-instance" xsi:noNamespaceSchemaLocation="http://sumo.dlr.de/xsd/netconvertConfiguration.xsd">

    <input>
        <node-files value="./converted_scenarios/scenario-factory/BEL_Zwevegem-6_4_I-1-1/BEL_Zwevegem-6_4_I-1-1.nod.xml"/>
        <edge-files value="./converted_scenarios/scenario-factory/BEL_Zwevegem-6_4_I-1-1/BEL_Zwevegem-6_4_I-1-1.edg.xml"/>
        <connection-files value="./converted_scenarios/scenario-factory/BEL_Zwevegem-6_4_I-1-1/BEL_Zwevegem-6_4_I-1-1.con.xml"/>
        <tllogic-files value="./converted_scenarios/scenario-factory/BEL_Zwevegem-6_4_I-1-1/BEL_Zwevegem-6_4_I-1-1.tll.xml"/>
        <type-files value="/home/zen/commonroad-interactive-benchmarks/install/commonroad-map-tool/crmapconverter/sumo_map/templates/DEU.typ.xml"/>
    </input>

    <output>
        <output-file value="./converted_scenarios/scenario-factory/BEL_Zwevegem-6_4_I-1-1/BEL_Zwevegem-6_4_I-1-1.net.xml"/>
    </output>

    <processing>
        <geometry.remove.keep-edges.explicit value="true"/>
        <geometry.avoid-overlap value="true"/>
        <offset.disable-normalization value="true"/>
    </processing>

    <junctions>
        <no-turnarounds value="true"/>
        <junctions.internal-link-detail value="20"/>
    </junctions>

    <report>
        <aggregate-warnings value="5"/>
    </report>

    <random_number>
        <seed value="1234"/>
    </random_number>

</configuration>
--><net xmlns:xsi="http://www.w3.org/2001/XMLSchema-instance" version="1.6" junctionCornerDetail="5" junctionLinkDetail="20" limitTurnSpeed="5.50" xsi:noNamespaceSchemaLocation="http://sumo.dlr.de/xsd/net_file.xsd">

    <location netOffset="0.00,0.00" convBoundary="390.21,-737.64,623.61,-411.03" origBoundary="390.21,-737.64,627.03,-411.03" projParameter="!"/>

    <type id="highway.bridleway" priority="1" speed="2.78" allow="pedestrian" oneway="1" width="2.00"/>
    <type id="highway.bus_guideway" priority="1" speed="27.78" allow="bus" oneway="1"/>
    <type id="highway.cycleway" priority="1" speed="8.33" allow="bicycle" oneway="0" width="1.00"/>
    <type id="highway.footway" priority="1" speed="2.78" allow="pedestrian" oneway="1" width="2.00"/>
    <type id="highway.ford" priority="1" speed="2.78" allow="army" oneway="0"/>
    <type id="highway.living_street" priority="2" speed="2.78" disallow="tram rail_urban rail rail_electric rail_fast ship" oneway="0"/>
    <type id="highway.motorway" priority="14" speed="39.44" allow="private emergency authority army vip passenger hov taxi bus coach delivery truck trailer motorcycle evehicle custom1 custom2" oneway="1"/>
    <type id="highway.motorway_link" priority="9" speed="22.22" allow="private emergency authority army vip passenger hov taxi bus coach delivery truck trailer motorcycle evehicle custom1 custom2" oneway="1"/>
    <type id="highway.path" priority="1" speed="2.78" allow="pedestrian bicycle" oneway="0" width="2.00"/>
    <type id="highway.pedestrian" priority="1" speed="2.78" allow="pedestrian" oneway="1" width="2.00"/>
    <type id="highway.primary" priority="12" speed="27.78" disallow="pedestrian tram rail_urban rail rail_electric rail_fast ship" oneway="0"/>
    <type id="highway.primary_link" priority="7" speed="22.22" disallow="pedestrian tram rail_urban rail rail_electric rail_fast ship" oneway="0"/>
    <type id="highway.raceway" priority="15" speed="83.33" allow="vip" oneway="0"/>
    <type id="highway.residential" priority="3" speed="13.89" disallow="pedestrian tram rail_urban rail rail_electric rail_fast ship" oneway="0"/>
    <type id="highway.secondary" priority="11" speed="27.78" disallow="pedestrian tram rail_urban rail rail_electric rail_fast ship" oneway="0"/>
    <type id="highway.secondary_link" priority="6" speed="22.22" disallow="pedestrian tram rail_urban rail rail_electric rail_fast ship" oneway="0"/>
    <type id="highway.service" priority="1" speed="5.56" allow="pedestrian delivery bicycle" oneway="0"/>
    <type id="highway.stairs" priority="1" speed="1.39" allow="pedestrian" oneway="1" width="2.00"/>
    <type id="highway.step" priority="1" speed="1.39" allow="pedestrian" oneway="1" width="2.00"/>
    <type id="highway.steps" priority="1" speed="1.39" allow="pedestrian" oneway="1" width="2.00"/>
    <type id="highway.tertiary" priority="10" speed="22.22" disallow="pedestrian tram rail_urban rail rail_electric rail_fast ship" oneway="0"/>
    <type id="highway.tertiary_link" priority="5" speed="22.22" disallow="pedestrian tram rail_urban rail rail_electric rail_fast ship" oneway="0"/>
    <type id="highway.track" priority="1" speed="5.56" allow="pedestrian motorcycle moped bicycle" oneway="0"/>
    <type id="highway.trunk" priority="13" speed="27.78" disallow="pedestrian bicycle tram rail_urban rail rail_electric rail_fast ship" oneway="0"/>
    <type id="highway.trunk_link" priority="8" speed="22.22" disallow="pedestrian bicycle tram rail_urban rail rail_electric rail_fast ship" oneway="0"/>
    <type id="highway.unclassified" priority="4" speed="13.89" disallow="pedestrian tram rail_urban rail rail_electric rail_fast ship" oneway="0"/>
    <type id="highway.unsurfaced" priority="1" speed="8.33" disallow="tram rail_urban rail rail_electric rail_fast ship" oneway="0"/>
    <type id="railway.highspeed" priority="21" speed="69.44" allow="rail_fast" oneway="1"/>
    <type id="railway.light_rail" priority="19" speed="27.78" allow="rail_urban" oneway="1"/>
    <type id="railway.preserved" priority="16" speed="27.78" allow="rail" oneway="1"/>
    <type id="railway.rail" priority="20" speed="44.44" allow="rail" oneway="1"/>
    <type id="railway.subway" priority="18" speed="27.78" allow="rail_urban" oneway="1"/>
    <type id="railway.tram" priority="17" speed="13.89" allow="tram" oneway="1"/>

    <edge id=":59_0" function="internal">
        <lane id=":59_0_0" index="0" disallow="pedestrian tram rail_urban rail rail_electric rail_fast ship" speed="36.11" length="3.31" width="3.50" shape="624.66,-630.78 624.51,-630.58 624.38,-630.40 624.26,-630.24 624.15,-630.10 624.05,-629.97 623.95,-629.85 623.86,-629.74 623.77,-629.64 623.68,-629.54 623.59,-629.44 623.50,-629.34 623.41,-629.24 623.31,-629.14 623.20,-629.03 623.08,-628.91 622.96,-628.78 622.82,-628.63 622.67,-628.47 622.50,-628.28"/>
    </edge>
    <edge id=":65_0" function="internal">
        <lane id=":65_0_0" index="0" disallow="pedestrian tram rail_urban rail rail_electric rail_fast ship" speed="36.11" length="3.45" width="3.50" shape="621.29,-645.90 621.49,-645.74 621.67,-645.60 621.84,-645.47 621.99,-645.35 622.13,-645.24 622.26,-645.15 622.38,-645.06 622.49,-644.97 622.60,-644.88 622.71,-644.80 622.81,-644.71 622.92,-644.62 623.04,-644.52 623.15,-644.41 623.28,-644.29 623.42,-644.16 623.57,-644.01 623.73,-643.84 623.91,-643.66"/>
    </edge>
    <edge id=":68_0" function="internal">
        <lane id=":68_0_0" index="0" disallow="pedestrian tram rail_urban rail rail_electric rail_fast ship" speed="36.11" length="3.37" width="3.50" shape="619.87,-630.59 620.04,-630.78 620.19,-630.94 620.33,-631.09 620.46,-631.23 620.58,-631.36 620.68,-631.47 620.78,-631.58 620.88,-631.68 620.97,-631.78 621.06,-631.88 621.15,-631.98 621.24,-632.09 621.33,-632.20 621.43,-632.32 621.53,-632.46 621.64,-632.61 621.77,-632.77 621.90,-632.95 622.05,-633.16"/>
    </edge>
    <edge id=":72_0" function="internal">
        <lane id=":72_0_0" index="0" disallow="pedestrian tram rail_urban rail rail_electric rail_fast ship" speed="36.11" length="5.11" width="3.50" shape="548.47,-571.24 548.19,-571.49 547.93,-571.72 547.70,-571.93 547.49,-572.12 547.30,-572.30 547.13,-572.46 546.96,-572.61 546.80,-572.75 546.64,-572.88 546.49,-573.01 546.33,-573.13 546.16,-573.26 545.98,-573.39 545.78,-573.53 545.57,-573.67 545.33,-573.82 545.07,-573.99 544.77,-574.17 544.44,-574.36"/>
    </edge>
    <edge id=":72_1" function="internal">
        <lane id=":72_1_0" index="0" disallow="pedestrian tram rail_urban rail rail_electric rail_fast ship" speed="36.11" length="30.64" width="3.50" shape="548.47,-571.24 535.84,-582.91 526.07,-592.14"/>
    </edge>
    <edge id=":72_2" function="internal">
        <lane id=":72_2_0" index="0" disallow="pedestrian tram rail_urban rail rail_electric rail_fast ship" speed="36.11" length="30.58" width="3.50" shape="528.45,-594.71 538.23,-585.47 550.80,-573.84"/>
    </edge>
    <edge id=":72_3" function="internal">
        <lane id=":72_3_0" index="0" disallow="pedestrian tram rail_urban rail rail_electric rail_fast ship" speed="12.71" length="24.76" width="3.50" shape="528.49,-594.67 528.68,-594.41 528.83,-594.04 528.92,-593.56 528.96,-592.97 528.95,-592.26 528.89,-591.45 528.78,-590.52 528.61,-589.48 528.40,-588.33 528.14,-587.08 527.82,-585.70 527.46,-584.22 527.04,-582.63 526.57,-580.93 526.06,-579.11 525.49,-577.19 524.87,-575.15 524.20,-573.00 523.48,-570.74"/>
    </edge>
    <edge id=":72_4" function="internal">
        <lane id=":72_4_0" index="0" disallow="pedestrian tram rail_urban rail rail_electric rail_fast ship" speed="10.07" length="26.40" width="3.50" shape="518.91,-571.55 524.57,-575.87 526.33,-577.56 527.89,-579.42 528.52,-580.36 529.08,-581.36 529.51,-582.37 529.81,-583.41 529.95,-584.44 529.94,-585.48 529.78,-586.51 529.46,-587.52 529.00,-588.51 528.41,-589.47 527.74,-590.37 526.07,-592.14"/>
    </edge>
    <edge id=":72_5" function="internal">
        <lane id=":72_5_0" index="0" disallow="pedestrian tram rail_urban rail rail_electric rail_fast ship" speed="13.53" length="35.67" width="3.50" shape="518.91,-571.55 522.65,-574.25 525.75,-576.20 529.05,-577.86 531.42,-578.75 533.88,-579.41 536.44,-579.76 539.01,-579.75 540.35,-579.59 541.64,-579.32 542.93,-578.94 545.31,-577.94 547.52,-576.59 550.80,-573.84"/>
    </edge>
    <edge id=":74_0" function="internal">
        <lane id=":74_0_0" index="0" disallow="pedestrian tram rail_urban rail rail_electric rail_fast ship" speed="11.17" length="28.36" width="3.50" shape="500.64,-615.94 498.14,-618.04 496.33,-619.27 494.41,-620.30 492.37,-621.07 491.32,-621.35 490.24,-621.54 489.15,-621.64 488.06,-621.64 486.98,-621.55 485.90,-621.37 484.84,-621.09 482.81,-620.31 480.89,-619.26 479.11,-618.01 477.44,-616.60 475.89,-615.07"/>
    </edge>
    <edge id=":74_1" function="internal">
        <lane id=":74_1_0" index="0" disallow="pedestrian tram rail_urban rail rail_electric rail_fast ship" speed="36.11" length="28.68" width="3.50" shape="500.64,-615.94 490.19,-625.72 479.70,-635.54"/>
    </edge>
    <edge id=":74_2" function="internal">
        <lane id=":74_2_0" index="0" disallow="pedestrian tram rail_urban rail rail_electric rail_fast ship" speed="36.11" length="28.69" width="3.50" shape="482.07,-638.12 492.58,-628.28 503.01,-618.51"/>
    </edge>
    <edge id=":74_3" function="internal">
        <lane id=":74_3_0" index="0" disallow="pedestrian tram rail_urban rail rail_electric rail_fast ship" speed="10.76" length="26.75" width="3.50" shape="482.07,-638.12 483.04,-637.10 483.82,-636.02 484.44,-634.84 484.86,-633.58 485.08,-632.26 485.10,-630.93 484.95,-629.60 484.65,-628.30 484.24,-627.03 483.13,-624.61 481.77,-622.31 479.41,-619.08 476.80,-616.04 475.89,-615.07"/>
    </edge>
    <edge id=":74_4" function="internal">
        <lane id=":74_4_0" index="0" disallow="pedestrian tram rail_urban rail rail_electric rail_fast ship" speed="9.62" length="21.14" width="3.50" shape="473.35,-617.48 474.14,-618.32 476.43,-620.96 478.50,-623.72 479.69,-625.62 480.67,-627.61 481.04,-628.57 481.32,-629.57 481.50,-630.55 481.55,-631.50 481.47,-632.40 481.25,-633.26 480.88,-634.06 480.38,-634.81 479.70,-635.54"/>
    </edge>
    <edge id=":74_5" function="internal">
        <lane id=":74_5_0" index="0" disallow="pedestrian tram rail_urban rail rail_electric rail_fast ship" speed="12.17" length="33.89" width="3.50" shape="473.35,-617.48 475.15,-619.25 477.09,-620.89 479.20,-622.37 481.50,-623.62 483.94,-624.56 485.27,-624.90 486.60,-625.13 487.94,-625.24 489.29,-625.23 490.64,-625.11 491.96,-624.88 493.28,-624.53 495.71,-623.60 498.01,-622.37 500.14,-620.92 503.01,-618.51"/>
    </edge>
    <edge id=":75_0" function="internal">
        <lane id=":75_0_0" index="0" disallow="pedestrian tram rail_urban rail rail_electric rail_fast ship" speed="36.11" length="32.06" width="3.50" shape="525.91,-592.29 514.20,-603.25 502.50,-614.20"/>
    </edge>
    <edge id=":75_1" function="internal">
        <lane id=":75_1_0" index="0" disallow="pedestrian tram rail_urban rail rail_electric rail_fast ship" speed="11.32" length="28.88" width="3.50" shape="525.91,-592.29 524.98,-593.24 524.12,-594.29 523.35,-595.44 522.72,-596.68 522.22,-597.99 521.90,-599.36 521.74,-600.75 521.74,-602.13 521.88,-603.48 522.15,-604.83 522.95,-607.30 524.03,-609.63 525.31,-611.82 527.46,-614.85 529.82,-617.67"/>
    </edge>
    <edge id=":75_2" function="internal">
        <lane id=":75_2_0" index="0" disallow="pedestrian tram rail_urban rail rail_electric rail_fast ship" speed="10.26" length="23.43" width="3.50" shape="532.43,-615.34 530.39,-612.91 528.51,-610.32 527.41,-608.49 526.46,-606.58 525.74,-604.58 525.49,-603.54 525.33,-602.49 525.27,-601.43 525.34,-600.36 525.54,-599.32 525.87,-598.30 526.33,-597.34 526.90,-596.44 527.56,-595.61 528.31,-594.84"/>
    </edge>
    <edge id=":75_3" function="internal">
        <lane id=":75_3_0" index="0" disallow="pedestrian tram rail_urban rail rail_electric rail_fast ship" speed="12.12" length="34.45" width="3.50" shape="532.43,-615.34 529.74,-612.63 527.71,-610.97 525.50,-609.52 523.11,-608.36 521.80,-607.90 520.47,-607.56 519.12,-607.33 517.74,-607.23 516.36,-607.25 515.00,-607.39 513.66,-607.65 512.33,-608.02 509.87,-609.00 507.56,-610.27 505.41,-611.75 502.50,-614.20"/>
    </edge>
    <edge id=":75_4" function="internal">
        <lane id=":75_4_0" index="0" disallow="pedestrian tram rail_urban rail rail_electric rail_fast ship" speed="11.11" length="28.80" width="3.50" shape="504.87,-616.77 507.41,-614.63 509.24,-613.37 511.18,-612.30 513.24,-611.48 514.30,-611.18 515.39,-610.97 516.50,-610.86 517.60,-610.84 518.71,-610.92 519.80,-611.10 520.88,-611.38 521.92,-611.74 523.92,-612.70 525.77,-613.92 527.49,-615.32 529.82,-617.67"/>
    </edge>
    <edge id=":75_5" function="internal">
        <lane id=":75_5_0" index="0" disallow="pedestrian tram rail_urban rail rail_electric rail_fast ship" speed="36.11" length="32.10" width="3.50" shape="504.87,-616.77 516.59,-605.81 528.31,-594.84"/>
    </edge>
    <edge id=":76_0" function="internal">
        <lane id=":76_0_0" index="0" disallow="pedestrian tram rail_urban rail rail_electric rail_fast ship" speed="36.11" length="28.03" width="3.50" shape="479.60,-635.63 471.84,-642.57 458.39,-653.95"/>
    </edge>
    <edge id=":76_1" function="internal">
        <lane id=":76_1_0" index="0" disallow="pedestrian tram rail_urban rail rail_electric rail_fast ship" speed="10.74" length="26.03" width="3.50" shape="479.60,-635.63 478.65,-636.63 477.90,-637.68 477.31,-638.84 476.91,-640.07 476.70,-641.35 476.69,-642.65 476.83,-643.94 477.11,-645.20 477.98,-647.65 479.15,-649.97 481.25,-653.24 483.64,-656.32 485.33,-658.29"/>
    </edge>
    <edge id=":76_2" function="internal">
        <lane id=":76_2_0" index="0" disallow="pedestrian tram rail_urban rail rail_electric rail_fast ship" speed="9.59" length="20.54" width="3.50" shape="487.94,-655.95 486.46,-654.25 484.37,-651.59 482.52,-648.81 481.50,-646.92 480.71,-644.94 480.45,-644.00 480.28,-643.04 480.23,-642.11 480.30,-641.23 480.50,-640.40 480.84,-639.63 481.31,-638.91 481.97,-638.21"/>
    </edge>
    <edge id=":76_3" function="internal">
        <lane id=":76_3_0" index="0" disallow="pedestrian tram rail_urban rail rail_electric rail_fast ship" speed="12.26" length="33.60" width="3.50" shape="487.94,-655.95 486.20,-654.14 484.31,-652.46 482.24,-650.95 479.98,-649.66 477.57,-648.69 476.26,-648.32 474.95,-648.07 473.62,-647.94 472.28,-647.91 470.92,-648.00 468.36,-648.47 465.88,-649.30 463.56,-650.40 461.37,-651.72 458.39,-653.95"/>
    </edge>
    <edge id=":76_4" function="internal">
        <lane id=":76_4_0" index="0" disallow="pedestrian tram rail_urban rail rail_electric rail_fast ship" speed="11.26" length="28.18" width="3.50" shape="460.61,-656.65 463.21,-654.71 465.07,-653.59 467.03,-652.66 469.08,-651.97 471.21,-651.57 472.29,-651.50 473.38,-651.52 474.46,-651.63 475.52,-651.83 476.57,-652.12 478.58,-652.93 480.46,-654.00 482.21,-655.28 483.83,-656.72 485.33,-658.29"/>
    </edge>
    <edge id=":76_5" function="internal">
        <lane id=":76_5_0" index="0" disallow="pedestrian tram rail_urban rail rail_electric rail_fast ship" speed="36.11" length="28.22" width="3.50" shape="460.61,-656.65 474.15,-645.20 481.97,-638.21"/>
    </edge>
    <edge id=":77_0" function="internal">
        <lane id=":77_0_0" index="0" disallow="pedestrian tram rail_urban rail rail_electric rail_fast ship" speed="14.65" length="27.84" width="3.50" shape="574.63,-575.61 573.99,-574.87 572.82,-573.23 571.86,-571.48 571.11,-569.63 570.57,-567.68 570.21,-565.70 569.99,-562.60 570.11,-559.47 570.50,-556.34 571.12,-553.23 572.22,-549.12"/>
    </edge>
    <edge id=":77_1" function="internal">
        <lane id=":77_1_0" index="0" disallow="pedestrian tram rail_urban rail rail_electric rail_fast ship" speed="11.71" length="31.30" width="3.50" shape="574.63,-575.61 573.75,-574.67 571.05,-572.13 569.03,-570.56 566.84,-569.20 564.49,-568.11 563.21,-567.67 561.90,-567.35 560.56,-567.15 559.21,-567.08 557.85,-567.13 556.51,-567.32 555.19,-567.63 553.89,-568.07 551.54,-569.18 549.36,-570.60 547.40,-572.20"/>
    </edge>
    <edge id=":77_2" function="internal">
        <lane id=":77_2_0" index="0" disallow="pedestrian tram rail_urban rail rail_electric rail_fast ship" speed="10.65" length="25.76" width="3.50" shape="549.72,-574.81 551.38,-573.46 553.18,-572.29 555.13,-571.39 556.15,-571.07 557.20,-570.83 558.27,-570.70 559.34,-570.67 560.41,-570.75 561.47,-570.93 562.51,-571.20 563.52,-571.55 565.46,-572.48 567.27,-573.63 568.96,-574.96 571.30,-577.17 572.03,-577.96"/>
    </edge>
    <edge id=":77_3" function="internal">
        <lane id=":77_3_0" index="0" disallow="pedestrian tram rail_urban rail rail_electric rail_fast ship" speed="24.37" length="34.39" width="3.50" shape="549.72,-574.81 551.28,-573.39 558.18,-566.90 563.36,-561.61 566.89,-557.61 569.53,-554.17 571.29,-551.31 572.22,-549.12"/>
    </edge>
    <edge id=":77_4" function="internal">
        <lane id=":77_4_0" index="0" disallow="pedestrian tram rail_urban rail rail_electric rail_fast ship" speed="23.44" length="32.35" width="3.50" shape="568.82,-548.23 568.08,-549.94 566.45,-552.52 563.95,-555.72 560.55,-559.51 555.55,-564.58 548.88,-570.85 547.40,-572.20"/>
    </edge>
    <edge id=":77_5" function="internal">
        <lane id=":77_5_0" index="0" disallow="pedestrian tram rail_urban rail rail_electric rail_fast ship" speed="15.53" length="31.30" width="3.50" shape="568.84,-548.24 567.68,-552.58 567.01,-556.01 566.60,-559.48 566.50,-562.98 566.78,-566.46 567.22,-568.75 567.88,-570.99 568.78,-573.14 569.91,-575.18 571.27,-577.07 572.03,-577.96"/>
    </edge>
    <edge id=":78_0" function="internal">
        <lane id=":78_0_0" index="0" disallow="pedestrian tram rail_urban rail rail_electric rail_fast ship" speed="11.44" length="28.61" width="3.50" shape="457.21,-654.92 455.41,-656.32 453.53,-657.58 451.57,-658.66 449.54,-659.51 447.45,-660.09 445.30,-660.37 444.27,-660.37 443.22,-660.30 442.17,-660.13 441.17,-659.90 439.12,-659.15 437.19,-658.13 435.36,-656.88 433.65,-655.43 432.02,-653.81"/>
    </edge>
    <edge id=":78_1" function="internal">
        <lane id=":78_1_0" index="0" disallow="pedestrian tram rail_urban rail rail_electric rail_fast ship" speed="12.10" length="34.07" width="3.50" shape="457.21,-654.92 454.42,-657.50 452.71,-659.45 451.20,-661.58 449.98,-663.90 449.47,-665.17 449.08,-666.47 448.80,-667.80 448.64,-669.15 448.60,-670.51 448.69,-671.87 448.88,-673.20 449.19,-674.54 450.05,-677.00 451.20,-679.34 452.57,-681.53 454.87,-684.51"/>
    </edge>
    <edge id=":78_2" function="internal">
        <lane id=":78_2_0" index="0" disallow="pedestrian tram rail_urban rail rail_electric rail_fast ship" speed="11.09" length="28.46" width="3.50" shape="457.54,-682.25 455.53,-679.66 454.37,-677.80 453.40,-675.84 452.68,-673.77 452.44,-672.70 452.28,-671.62 452.21,-670.53 452.24,-669.43 452.37,-668.35 452.59,-667.28 452.91,-666.23 453.31,-665.21 454.33,-663.27 455.59,-661.49 457.04,-659.84 459.45,-657.61"/>
    </edge>
    <edge id=":78_3" function="internal">
        <lane id=":78_3_0" index="0" disallow="pedestrian tram rail_urban rail rail_electric rail_fast ship" speed="36.11" length="38.21" width="3.50" shape="457.54,-682.25 445.29,-668.28 433.45,-655.34 432.02,-653.81"/>
    </edge>
    <edge id=":78_4" function="internal">
        <lane id=":78_4_0" index="0" disallow="pedestrian tram rail_urban rail rail_electric rail_fast ship" speed="36.11" length="38.03" width="3.50" shape="429.47,-656.21 430.88,-657.72 442.69,-670.62 454.87,-684.51"/>
    </edge>
    <edge id=":78_5" function="internal">
        <lane id=":78_5_0" index="0" disallow="pedestrian tram rail_urban rail rail_electric rail_fast ship" speed="12.43" length="33.97" width="3.50" shape="429.47,-656.21 431.34,-658.07 433.34,-659.75 435.49,-661.23 437.79,-662.45 440.24,-663.35 441.51,-663.65 442.80,-663.86 444.10,-663.96 445.41,-663.95 448.00,-663.62 450.51,-662.92 452.92,-661.92 455.21,-660.66 457.39,-659.22 459.45,-657.61"/>
    </edge>
    <edge id=":79_0" function="internal">
        <lane id=":79_0_0" index="0" disallow="pedestrian tram rail_urban rail rail_electric rail_fast ship" speed="36.11" length="40.08" width="3.50" shape="543.25,-467.97 537.81,-475.45 519.90,-500.54"/>
    </edge>
    <edge id=":79_1" function="internal">
        <lane id=":79_1_0" index="0" disallow="pedestrian tram rail_urban rail rail_electric rail_fast ship" speed="14.30" length="37.48" width="3.49" shape="543.25,-467.97 542.55,-468.98 541.30,-471.05 540.25,-473.25 539.43,-475.58 538.87,-477.99 538.60,-480.44 538.61,-482.91 538.89,-485.35 539.41,-487.73 540.14,-490.05 541.53,-493.34 543.23,-496.47 545.15,-499.43 547.27,-502.25"/>
    </edge>
    <edge id=":79_2" function="internal">
        <lane id=":79_2_0" index="0" disallow="pedestrian tram rail_urban rail rail_electric rail_fast ship" speed="13.43" length="32.92" width="3.50" shape="550.02,-500.10 548.09,-497.52 546.34,-494.86 544.81,-492.07 543.55,-489.15 542.90,-487.13 542.43,-485.06 542.16,-482.95 542.12,-480.83 542.33,-478.72 542.78,-476.65 543.47,-474.64 544.38,-472.73 545.47,-470.91 546.08,-470.04"/>
    </edge>
    <edge id=":79_3" function="internal">
        <lane id=":79_3_0" index="0" disallow="pedestrian tram rail_urban rail rail_electric rail_fast ship" speed="11.51" length="37.52" width="3.50" shape="550.03,-500.10 547.16,-496.81 545.07,-494.82 542.79,-493.05 541.58,-492.28 540.30,-491.60 538.97,-491.04 537.60,-490.62 536.18,-490.36 534.74,-490.27 533.31,-490.36 531.89,-490.64 530.52,-491.08 529.20,-491.66 527.95,-492.37 526.76,-493.18 524.55,-495.04 522.56,-497.12 519.90,-500.54"/>
    </edge>
    <edge id=":79_4" function="internal">
        <lane id=":79_4_0" index="0" disallow="pedestrian tram rail_urban rail rail_electric rail_fast ship" speed="10.46" length="30.78" width="3.49" shape="522.75,-502.57 525.07,-499.59 526.75,-497.83 528.60,-496.27 529.55,-495.63 530.55,-495.07 531.58,-494.61 532.64,-494.27 533.71,-494.07 534.80,-494.00 535.89,-494.07 536.97,-494.27 538.04,-494.61 539.09,-495.05 540.11,-495.60 541.09,-496.22 543.02,-497.72 544.79,-499.41 547.27,-502.25"/>
    </edge>
    <edge id=":79_5" function="internal">
        <lane id=":79_5_0" index="0" disallow="pedestrian tram rail_urban rail rail_electric rail_fast ship" speed="36.11" length="40.03" width="3.50" shape="522.75,-502.57 540.64,-477.50 546.08,-470.04"/>
    </edge>
    <edge id=":80_0" function="internal">
        <lane id=":80_0_0" index="0" disallow="pedestrian tram rail_urban rail rail_electric rail_fast ship" speed="12.41" length="30.97" width="3.50" shape="464.25,-562.13 461.80,-564.34 460.08,-565.58 458.25,-566.64 456.33,-567.46 454.33,-568.03 452.28,-568.34 450.20,-568.36 448.12,-568.13 446.05,-567.66 444.02,-566.99 442.04,-566.13 439.14,-564.56 436.39,-562.73"/>
    </edge>
    <edge id=":80_1" function="internal">
        <lane id=":80_1_0" index="0" disallow="pedestrian tram rail_urban rail rail_electric rail_fast ship" speed="36.11" length="39.74" width="3.50" shape="464.25,-562.13 459.80,-566.59 435.85,-589.92"/>
    </edge>
    <edge id=":80_2" function="internal">
        <lane id=":80_2_0" index="0" disallow="pedestrian tram rail_urban rail rail_electric rail_fast ship" speed="36.11" length="39.73" width="3.50" shape="438.31,-592.40 462.28,-569.07 466.71,-564.62"/>
    </edge>
    <edge id=":80_3" function="internal">
        <lane id=":80_3_0" index="0" disallow="pedestrian tram rail_urban rail rail_electric rail_fast ship" speed="11.74" length="35.52" width="3.50" shape="438.31,-592.40 440.11,-590.53 441.80,-588.50 443.32,-586.30 444.59,-583.92 445.12,-582.61 445.53,-581.27 445.83,-579.88 445.98,-578.46 445.99,-577.02 445.84,-575.59 445.53,-574.19 445.08,-572.83 444.51,-571.54 443.84,-570.32 443.06,-569.15 441.36,-567.07 439.45,-565.18 436.39,-562.73"/>
    </edge>
    <edge id=":80_4" function="internal">
        <lane id=":80_4_0" index="0" disallow="pedestrian tram rail_urban rail rail_electric rail_fast ship" speed="10.70" length="29.28" width="3.50" shape="434.34,-565.57 436.98,-567.68 438.58,-569.26 440.01,-571.01 440.62,-571.95 441.17,-572.94 441.62,-573.97 441.97,-575.04 442.21,-576.14 442.33,-577.26 442.32,-578.38 442.19,-579.50 441.96,-580.60 441.62,-581.68 441.20,-582.72 440.13,-584.71 438.85,-586.56 437.41,-588.29 435.85,-589.92"/>
    </edge>
    <edge id=":80_5" function="internal">
        <lane id=":80_5_0" index="0" disallow="pedestrian tram rail_urban rail rail_electric rail_fast ship" speed="13.34" length="35.93" width="3.50" shape="434.34,-565.57 437.44,-567.62 440.71,-569.39 442.99,-570.36 445.34,-571.14 447.76,-571.67 450.23,-571.93 452.70,-571.87 455.15,-571.50 457.53,-570.80 459.80,-569.81 461.94,-568.57 463.95,-567.11 466.71,-564.62"/>
    </edge>

    <edge id="41061" from="62" to="80" priority="3" type="highway.residential" spreadType="center" length="54.35" shape="390.21,-533.86 444.97,-574.33">
        <lane id="41061_0" index="0" disallow="pedestrian tram rail_urban rail rail_electric rail_fast ship" speed="36.11" length="54.35" width="3.50" customShape="1" shape="390.21,-533.86 412.28,-549.72 434.35,-565.57"/>
    </edge>
    <edge id="41062" from="80" to="56" priority="3" type="highway.residential" spreadType="center" length="54.37" shape="447.05,-571.52 392.24,-531.00">
        <lane id="41062_0" index="0" disallow="pedestrian tram rail_urban rail rail_electric rail_fast ship" speed="36.11" length="54.37" width="3.50" customShape="1" shape="436.39,-562.73 414.32,-546.87 392.24,-531.00"/>
    </edge>
    <edge id="41070" from="31" to="76" priority="3" type="highway.residential" spreadType="center" length="52.02" shape="522.64,-694.69 476.84,-648.52">
        <lane id="41070_0" index="0" disallow="pedestrian tram rail_urban rail rail_electric rail_fast ship" speed="36.11" length="52.02" width="3.50" customShape="1" shape="522.64,-694.69 505.29,-675.32 487.93,-655.95"/>
    </edge>
    <edge id="41071" from="76" to="30" priority="3" type="highway.residential" spreadType="center" length="52.02" shape="474.36,-650.98 520.04,-697.03">
        <lane id="41071_0" index="0" disallow="pedestrian tram rail_urban rail rail_electric rail_fast ship" speed="36.11" length="52.02" width="3.50" customShape="1" shape="485.33,-658.29 502.69,-677.66 520.04,-697.03"/>
    </edge>
    <edge id="41093" from="74" to="16" priority="3" type="highway.residential" spreadType="center" length="32.57" shape="487.02,-622.19 453.45,-591.46">
        <lane id="41093_0" index="0" disallow="pedestrian tram rail_urban rail rail_electric rail_fast ship" speed="36.11" length="32.57" width="3.50" customShape="1" shape="475.89,-615.07 464.67,-603.27 453.45,-591.46"/>
    </edge>
    <edge id="41094" from="18" to="74" priority="3" type="highway.residential" spreadType="center" length="32.57" shape="450.92,-593.88 484.65,-624.77">
        <lane id="41094_0" index="0" disallow="pedestrian tram rail_urban rail rail_electric rail_fast ship" speed="36.11" length="32.57" width="3.50" customShape="1" shape="450.92,-593.88 462.13,-605.68 473.36,-617.49"/>
    </edge>
    <edge id="41117" from="17" to="75" priority="3" type="highway.residential" spreadType="center" length="67.34" shape="577.19,-665.63 521.88,-607.29">
        <lane id="41117_0" index="0" disallow="pedestrian tram rail_urban rail rail_electric rail_fast ship" speed="36.11" length="67.34" width="3.50" customShape="1" shape="577.19,-665.63 554.82,-640.49 532.42,-615.33"/>
    </edge>
    <edge id="41118" from="75" to="9" priority="3" type="highway.residential" spreadType="center" length="67.32" shape="519.34,-609.70 574.58,-667.96">
        <lane id="41118_0" index="0" disallow="pedestrian tram rail_urban rail rail_electric rail_fast ship" speed="36.11" length="67.32" width="3.50" customShape="1" shape="529.82,-617.67 552.20,-642.82 574.58,-667.96"/>
    </edge>
    <edge id="41128" from="76" to="78" priority="3" type="highway.residential" spreadType="center" length="1.54" shape="474.78,-648.25 447.49,-663.41">
        <lane id="41128_0" index="0" disallow="pedestrian tram rail_urban rail rail_electric rail_fast ship" speed="36.11" length="1.54" width="3.50" customShape="1" shape="458.39,-653.95 457.79,-654.44 457.20,-654.93"/>
    </edge>