<routes>
	<vehicle depart="0.1" departLane="0" departPos="20.992394827186835" departSpeed="7.9802898" id="37" type="bicycle">
		<route edges="41118"/>
	</vehicle>
	<vehicle depart="0.1" departLane="0" departPos="19.8791372527371" departSpeed="5.6779827" id="31" type="passenger">
		<route edges=":75_0 41134 41093"/>
	</vehicle>
	<vehicle depart="0.1" departLane="0" departPos="6.713124852588693" departSpeed="1.0331657" id="318" type="passenger">
		<route edges=":75_3 41134"/>
	</vehicle>
	<vehicle depart="0.1" departLane="0" departPos="58.95758053863792" departSpeed="1.7673689" id="320" type="passenger">
		<route edges="41117 41134"/>
	</vehicle>
	<vehicle depart="0.1" departLane="0" departPos="21.8414368226498" departSpeed="0.19325331" id="338" type="passenger">
		<route edges="41117 41134"/>
	</vehicle>
	<vehicle depart="0.1" departLane="0" departPos="2.5" departSpeed="7.1329538" id="360" type="passenger">
		<route edges=":75_4 41118"/>
	</vehicle>
	<vehicle depart="0.1" departLane="0" departPos="13.663463597965444" departSpeed="0.66882938" id="369" type="passenger">
		<route edges=":72_4 41137"/>
	</vehicle>
	<vehicle depart="0.1" departLane="0" departPos="2.5" departSpeed="1.0170485" id="389" type="passenger">
		<route edges="41245 41137"/>
	</vehicle>
	<vehicle depart="0.1" departLane="0" departPos="33.56475935500603" departSpeed="0.59357839" id="322" type="motorcycle">
		<route edges="41117 41134"/>
	</vehicle>
</routes>
