<!-- generated on Tue Feb  9 22:12:59 2021 by Eclipse SUMO netconvert Version 1.8.0
<configuration xmlns:xsi="http://www.w3.org/2001/XMLSchema-instance" xsi:noNamespaceSchemaLocation="http://sumo.dlr.de/xsd/netconvertConfiguration.xsd">

    <input>
        <node-files value="./converted_scenarios/scenario-factory/DEU_Guetersloh-18_1_I-1-1/DEU_Guetersloh-18_1_I-1-1.nod.xml"/>
        <edge-files value="./converted_scenarios/scenario-factory/DEU_Guetersloh-18_1_I-1-1/DEU_Guetersloh-18_1_I-1-1.edg.xml"/>
        <connection-files value="./converted_scenarios/scenario-factory/DEU_Guetersloh-18_1_I-1-1/DEU_Guetersloh-18_1_I-1-1.con.xml"/>
        <tllogic-files value="./converted_scenarios/scenario-factory/DEU_Guetersloh-18_1_I-1-1/DEU_Guetersloh-18_1_I-1-1.tll.xml"/>
        <type-files value="/home/zen/commonroad-interactive-benchmarks/install/commonroad-map-tool/crmapconverter/sumo_map/templates/DEU.typ.xml"/>
    </input>

    <output>
        <output-file value="./converted_scenarios/scenario-factory/DEU_Guetersloh-18_1_I-1-1/DEU_Guetersloh-18_1_I-1-1.net.xml"/>
    </output>

    <processing>
        <geometry.remove.keep-edges.explicit value="true"/>
        <geometry.avoid-overlap value="true"/>
        <offset.disable-normalization value="true"/>
    </processing>

    <junctions>
        <no-turnarounds value="true"/>
        <junctions.internal-link-detail value="20"/>
    </junctions>

    <report>
        <aggregate-warnings value="5"/>
    </report>

    <random_number>
        <seed value="1234"/>
    </random_number>

</configuration>
--><net xmlns:xsi="http://www.w3.org/2001/XMLSchema-instance" version="1.6" junctionCornerDetail="5" junctionLinkDetail="20" limitTurnSpeed="5.50" xsi:noNamespaceSchemaLocation="http://sumo.dlr.de/xsd/net_file.xsd">

    <location netOffset="0.00,0.00" convBoundary="-943.54,-969.63,-781.94,-854.60" origBoundary="-943.54,-969.63,-781.94,-852.99" projParameter="!"/>

    <type id="highway.bridleway" priority="1" speed="2.78" allow="pedestrian" oneway="1" width="2.00"/>
    <type id="highway.bus_guideway" priority="1" speed="27.78" allow="bus" oneway="1"/>
    <type id="highway.cycleway" priority="1" speed="8.33" allow="bicycle" oneway="0" width="1.00"/>
    <type id="highway.footway" priority="1" speed="2.78" allow="pedestrian" oneway="1" width="2.00"/>
    <type id="highway.ford" priority="1" speed="2.78" allow="army" oneway="0"/>
    <type id="highway.living_street" priority="2" speed="2.78" disallow="tram rail_urban rail rail_electric rail_fast ship" oneway="0"/>
    <type id="highway.motorway" priority="14" speed="39.44" allow="private emergency authority army vip passenger hov taxi bus coach delivery truck trailer motorcycle evehicle custom1 custom2" oneway="1"/>
    <type id="highway.motorway_link" priority="9" speed="22.22" allow="private emergency authority army vip passenger hov taxi bus coach delivery truck trailer motorcycle evehicle custom1 custom2" oneway="1"/>
    <type id="highway.path" priority="1" speed="2.78" allow="pedestrian bicycle" oneway="0" width="2.00"/>
    <type id="highway.pedestrian" priority="1" speed="2.78" allow="pedestrian" oneway="1" width="2.00"/>
    <type id="highway.primary" priority="12" speed="27.78" disallow="pedestrian tram rail_urban rail rail_electric rail_fast ship" oneway="0"/>
    <type id="highway.primary_link" priority="7" speed="22.22" disallow="pedestrian tram rail_urban rail rail_electric rail_fast ship" oneway="0"/>
    <type id="highway.raceway" priority="15" speed="83.33" allow="vip" oneway="0"/>
    <type id="highway.residential" priority="3" speed="13.89" disallow="pedestrian tram rail_urban rail rail_electric rail_fast ship" oneway="0"/>
    <type id="highway.secondary" priority="11" speed="27.78" disallow="pedestrian tram rail_urban rail rail_electric rail_fast ship" oneway="0"/>
    <type id="highway.secondary_link" priority="6" speed="22.22" disallow="pedestrian tram rail_urban rail rail_electric rail_fast ship" oneway="0"/>
    <type id="highway.service" priority="1" speed="5.56" allow="pedestrian delivery bicycle" oneway="0"/>
    <type id="highway.stairs" priority="1" speed="1.39" allow="pedestrian" oneway="1" width="2.00"/>
    <type id="highway.step" priority="1" speed="1.39" allow="pedestrian" oneway="1" width="2.00"/>
    <type id="highway.steps" priority="1" speed="1.39" allow="pedestrian" oneway="1" width="2.00"/>
    <type id="highway.tertiary" priority="10" speed="22.22" disallow="pedestrian tram rail_urban rail rail_electric rail_fast ship" oneway="0"/>
    <type id="highway.tertiary_link" priority="5" speed="22.22" disallow="pedestrian tram rail_urban rail rail_electric rail_fast ship" oneway="0"/>
    <type id="highway.track" priority="1" speed="5.56" allow="pedestrian motorcycle moped bicycle" oneway="0"/>
    <type id="highway.trunk" priority="13" speed="27.78" disallow="pedestrian bicycle tram rail_urban rail rail_electric rail_fast ship" oneway="0"/>
    <type id="highway.trunk_link" priority="8" speed="22.22" disallow="pedestrian bicycle tram rail_urban rail rail_electric rail_fast ship" oneway="0"/>
    <type id="highway.unclassified" priority="4" speed="13.89" disallow="pedestrian tram rail_urban rail rail_electric rail_fast ship" oneway="0"/>
    <type id="highway.unsurfaced" priority="1" speed="8.33" disallow="tram rail_urban rail rail_electric rail_fast ship" oneway="0"/>
    <type id="railway.highspeed" priority="21" speed="69.44" allow="rail_fast" oneway="1"/>
    <type id="railway.light_rail" priority="19" speed="27.78" allow="rail_urban" oneway="1"/>
    <type id="railway.preserved" priority="16" speed="27.78" allow="rail" oneway="1"/>
    <type id="railway.rail" priority="20" speed="44.44" allow="rail" oneway="1"/>
    <type id="railway.subway" priority="18" speed="27.78" allow="rail_urban" oneway="1"/>
    <type id="railway.tram" priority="17" speed="13.89" allow="tram" oneway="1"/>

    <edge id=":12_0" function="internal">
        <lane id=":12_0_0" index="0" disallow="pedestrian tram rail_urban rail rail_electric rail_fast ship" speed="36.11" length="2.87" width="3.50" shape="-902.01,-875.37 -899.28,-876.24"/>
    </edge>
    <edge id=":15_0" function="internal">
        <lane id=":15_0_0" index="0" disallow="pedestrian tram rail_urban rail rail_electric rail_fast ship" speed="36.11" length="30.25" width="3.50" shape="-849.23,-886.34 -863.73,-881.98 -878.20,-877.62"/>
    </edge>
    <edge id=":15_1" function="internal">
        <lane id=":15_1_0" index="0" disallow="pedestrian tram rail_urban rail rail_electric rail_fast ship" speed="36.11" length="30.25" width="3.49" shape="-849.23,-886.34 -863.73,-881.98 -878.20,-877.62"/>
    </edge>
    <edge id=":15_2" function="internal">
        <lane id=":15_2_0" index="0" disallow="pedestrian tram rail_urban rail rail_electric rail_fast ship" speed="12.41" length="34.08" width="3.50" shape="-849.23,-886.34 -851.61,-885.72 -854.06,-885.29 -856.56,-885.09 -859.11,-885.18 -861.65,-885.61 -864.12,-886.40 -866.44,-887.56 -868.55,-889.05 -870.42,-890.80 -872.05,-892.74 -873.45,-894.81 -874.66,-896.98 -876.14,-900.31"/>
    </edge>
    <edge id=":15_3" function="internal">
        <lane id=":15_3_0" index="0" disallow="pedestrian tram rail_urban rail rail_electric rail_fast ship" speed="11.42" length="28.71" width="3.50" shape="-872.84,-901.48 -871.58,-898.67 -870.55,-896.80 -869.36,-895.03 -867.99,-893.39 -866.44,-891.92 -864.70,-890.69 -862.79,-889.72 -860.76,-889.06 -858.66,-888.70 -856.52,-888.62 -854.39,-888.79 -852.29,-889.16 -850.22,-889.70"/>
    </edge>
    <edge id=":15_4" function="internal">
        <lane id=":15_4_0" index="0" disallow="pedestrian tram rail_urban rail rail_electric rail_fast ship" speed="10.91" length="27.98" width="3.50" shape="-872.84,-901.48 -871.64,-898.07 -870.66,-894.44 -870.22,-891.90 -870.04,-889.33 -870.07,-887.97 -870.23,-886.62 -870.51,-885.27 -870.96,-883.93 -871.58,-882.65 -872.38,-881.44 -873.36,-880.37 -874.46,-879.44 -875.67,-878.68 -876.93,-878.08 -878.20,-877.62"/>
    </edge>
    <edge id=":15_5" function="internal">
        <lane id=":15_5_0" index="0" disallow="pedestrian tram rail_urban rail rail_electric rail_fast ship" speed="10.91" length="27.98" width="3.49" shape="-872.84,-901.48 -871.64,-898.07 -870.66,-894.44 -870.22,-891.90 -870.04,-889.33 -870.07,-887.97 -870.23,-886.62 -870.51,-885.27 -870.96,-883.93 -871.58,-882.65 -872.38,-881.44 -873.36,-880.37 -874.46,-879.44 -875.67,-878.68 -876.93,-878.08 -878.20,-877.62"/>
    </edge>
    <edge id=":15_6" function="internal">
        <lane id=":15_6_0" index="0" disallow="pedestrian tram rail_urban rail rail_electric rail_fast ship" speed="9.78" length="22.31" width="3.50" shape="-879.25,-880.96 -878.25,-881.32 -877.30,-881.79 -876.42,-882.39 -875.63,-883.10 -874.97,-883.93 -874.44,-884.85 -874.05,-885.84 -873.78,-886.87 -873.62,-887.92 -873.56,-888.98 -873.58,-890.05 -873.80,-892.16 -874.20,-894.25 -875.07,-897.32 -876.14,-900.31"/>
    </edge>
    <edge id=":15_7" function="internal">
        <lane id=":15_7_0" index="0" disallow="pedestrian tram rail_urban rail rail_electric rail_fast ship" speed="36.11" length="30.32" width="3.50" shape="-879.25,-880.96 -864.74,-885.33 -850.22,-889.70"/>
    </edge>
    <edge id=":8_0" function="internal">
        <lane id=":8_0_0" index="0" disallow="pedestrian tram rail_urban rail rail_electric rail_fast ship" speed="36.11" length="6.03" width="3.50" shape="-897.72,-873.05 -903.45,-871.16"/>
    </edge>
    <edge id=":8_1" function="internal">
        <lane id=":8_1_0" index="0" disallow="pedestrian tram rail_urban rail rail_electric rail_fast ship" speed="36.11" length="5.84" width="3.50" shape="-896.80,-869.82 -902.30,-867.86"/>
    </edge>

    <edge id="69053" from="11" to="15" priority="3" type="highway.residential" spreadType="center" length="70.00" shape="-781.94,-905.58 -867.33,-887.70">
        <lane id="69053_0" index="0" disallow="pedestrian tram rail_urban rail rail_electric rail_fast ship" speed="36.11" length="70.00" width="3.50" customShape="1" shape="-781.94,-905.58 -789.03,-903.69 -817.02,-895.87 -849.24,-886.34"/>
    </edge>
    <edge id="69054" from="15" to="7" priority="3" type="highway.residential" spreadType="center" length="70.00" shape="-868.05,-891.12 -782.92,-908.94">
        <lane id="69054_0" index="0" disallow="pedestrian tram rail_urban rail rail_electric rail_fast ship" speed="36.11" length="70.00" width="3.50" customShape="1" shape="-850.22,-889.70 -818.00,-899.23 -789.97,-907.06 -782.92,-908.94"/>
    </edge>
    <edge id="69210" from="13" to="12" priority="3" type="highway.residential" spreadType="center" length="44.48">
        <lane id="69210_0" index="0" disallow="pedestrian tram rail_urban rail rail_electric rail_fast ship" speed="36.11" length="44.48" width="3.50" customShape="1" shape="-943.54,-859.46 -927.47,-865.99 -912.70,-871.65 -902.01,-875.37"/>
    </edge>
    <edge id="69212" from="8" to="9" priority="3" type="highway.residential" spreadType="center" length="41.37">
        <lane id="69212_0" index="0" disallow="pedestrian tram rail_urban rail rail_electric rail_fast ship" speed="36.11" length="41.37" width="3.50" acceleration="1" customShape="1" shape="-902.30,-867.86 -910.31,-865.07 -924.93,-859.46 -940.89,-852.98"/>
        <lane id="69212_1" index="1" disallow="pedestrian tram rail_urban rail rail_electric rail_fast ship" speed="36.11" length="41.56" width="3.50" customShape="1" shape="-903.45,-871.16 -911.51,-868.36 -926.20,-862.73 -942.22,-856.22"/>
    </edge>
    <edge id="69593" from="10" to="15" priority="3" type="highway.residential" spreadType="center" length="70.10" shape="-864.33,-969.63 -865.91,-889.35">
        <lane id="69593_0" index="0" disallow="pedestrian tram rail_urban rail rail_electric rail_fast ship" speed="36.11" length="70.10" width="3.50" customShape="1" shape="-864.33,-969.63 -867.85,-956.77 -872.94,-936.34 -874.67,-929.02 -875.74,-923.10 -876.30,-919.13 -876.47,-916.13 -876.31,-913.63 -875.78,-910.67 -874.39,-905.85 -872.84,-901.48"/>
    </edge>
    <edge id="69594" from="15" to="3" priority="3" type="highway.residential" spreadType="center" length="70.01" shape="-869.41,-889.40 -868.29,-968.41">
        <lane id="69594_0" index="0" disallow="pedestrian tram rail_urban rail rail_electric rail_fast ship" speed="36.11" length="70.01" width="3.50" customShape="1" shape="-876.14,-900.31 -877.69,-904.69 -879.13,-909.65 -879.72,-912.79 -879.95,-915.49 -879.85,-918.70 -879.33,-922.81 -878.28,-928.84 -876.56,-936.26 -871.46,-956.80 -868.29,-968.41"/>
    </edge>
    <edge id="69674" from="12" to="15" priority="3" type="highway.residential" spreadType="center" length="20.60" shape="-900.65,-875.84 -868.32,-891.04">
        <lane id="69674_0" index="0" disallow="pedestrian tram rail_urban rail rail_electric rail_fast ship" speed="36.11" length="20.60" width="3.50" customShape="1" shape="-899.28,-876.24 -896.47,-877.06 -890.09,-878.43 -883.70,-879.76 -879.50,-880.88 -879.37,-880.92 -879.24,-880.96"/>
    </edge>
    <edge id="73519" from="15" to="8" priority="3" type="highway.residential" spreadType="center" length="20.06" shape="-866.77,-887.91 -898.99,-870.86">
        <lane id="73519_0" index="0" disallow="pedestrian tram rail_urban rail rail_electric rail_fast ship" speed="36.11" length="20.06" width="3.49" customShape="1" shape="-878.20,-877.62 -878.35,-877.57 -878.49,-877.53 -882.77,-876.39 -889.19,-875.06 -895.49,-873.70 -897.72,-873.05"/>
    </edge>
    <edge id="73522" from="15" to="8" priority="3" type="highway.residential" spreadType="center" length="20.18">
        <lane id="73522_0" index="0" disallow="pedestrian tram rail_urban rail rail_electric rail_fast ship" speed="36.11" length="20.18" width="3.50" customShape="1" shape="-878.20,-877.62 -878.35,-877.57 -878.49,-877.53 -882.35,-876.16 -888.01,-873.66 -894.57,-870.66 -896.80,-869.82"/>
    </edge>

    <junction id="10" type="dead_end" x="-864.33" y="-969.63" incLanes="" intLanes="" shape="-866.02,-970.09 -862.64,-969.17" rightOfWay="edgePriority"/>
    <junction id="11" type="dead_end" x="-781.94" y="-905.58" incLanes="" intLanes="" shape="-782.39,-907.27 -781.49,-903.89" rightOfWay="edgePriority"/>
    <junction id="12" type="priority" x="-900.65" y="-875.84" incLanes="69210_0" intLanes=":12_0_0" shape="-898.79,-874.56 -899.77,-877.92 -902.58,-877.02 -901.43,-873.72" rightOfWay="edgePriority">
        <request index="0" response="0" foes="0" cont="0"/>
    </junction>
    <junction id="13" type="dead_end" x="-943.54" y="-859.46" incLanes="" intLanes="" shape="-942.88,-857.84 -944.20,-861.08" rightOfWay="edgePriority"/>
    <junction id="15" type="priority" x="-867.66" y="-889.42" incLanes="69053_0 69593_0 69674_0" intLanes=":15_0_0 :15_1_0 :15_2_0 :15_3_0 :15_4_0 :15_5_0 :15_6_0 :15_7_0" shape="-848.73,-884.66 -850.72,-891.38 -855.49,-890.43 -859.71,-890.58 -863.40,-891.81 -866.54,-894.14 -869.14,-897.56 -871.20,-902.07 -877.79,-899.73 -876.38,-895.12 -875.67,-891.22 -875.65,-888.02 -876.32,-885.52 -877.69,-883.72 -879.76,-882.63 -877.68,-875.95">
        <request index="0" response="00000000" foes="00010000" cont="0"/>
        <request index="1" response="00000000" foes="00110000" cont="0"/>
        <request index="2" response="11000000" foes="11110000" cont="0"/>
        <request index="3" response="10000000" foes="10000000" cont="0"/>
        <request index="4" response="10000111" foes="10000111" cont="0"/>
        <request index="5" response="10000110" foes="10000110" cont="0"/>
        <request index="6" response="00000000" foes="00000100" cont="0"/>
        <request index="7" response="00000000" foes="00111100" cont="0"/>
    </junction>
    <junction id="3" type="dead_end" x="-868.29" y="-968.41" incLanes="69594_0" intLanes="" shape="-869.98,-968.87 -866.60,-967.95" rightOfWay="edgePriority"/>
    <junction id="7" type="dead_end" x="-782.92" y="-908.94" incLanes="69054_0" intLanes="" shape="-783.37,-910.63 -782.47,-907.25" rightOfWay="edgePriority"/>
    <junction id="8" type="priority" x="-898.99" y="-870.86" incLanes="73519_0 73522_0" intLanes=":8_0_0 :8_1_0" shape="-896.44,-868.55 -898.20,-874.73 -904.02,-872.81 -901.72,-866.20" rightOfWay="edgePriority">
        <request index="0" response="00" foes="00" cont="0"/>
        <request index="1" response="00" foes="00" cont="0"/>
    </junction>
    <junction id="9" type="dead_end" x="-941.55" y="-854.60" incLanes="69212_0 69212_1" intLanes="" shape="-940.23,-851.36 -942.87,-857.85" rightOfWay="edgePriority"/>

    <connection from="69053" to="73522" fromLane="0" toLane="0" contPos="-4.00" shape="-849.24,-886.34 -863.73,-881.98 -878.20,-877.62" via=":15_0_0" dir="s" state="M"/>
    <connection from="69053" to="73519" fromLane="0" toLane="0" contPos="-4.00" shape="-849.24,-886.34 -863.73,-881.98 -878.20,-877.62" via=":15_1_0" dir="s" state="M"/>
    <connection from="69053" to="69594" fromLane="0" toLane="0" contPos="-4.00" shape="-849.24,-886.34 -851.61,-885.72 -854.06,-885.29 -856.56,-885.09 -859.11,-885.18 -861.65,-885.61 -864.12,-886.40 -866.44,-887.56 -868.55,-889.05 -870.42,-890.80 -872.05,-892.74 -873.45,-894.81 -874.66,-896.98 -876.14,-900.31" via=":15_2_0" dir="l" state="m"/>
    <connection from="69210" to="69674" fromLane="0" toLane="0" contPos="-4.00" via=":12_0_0" dir="s" state="M"/>
    <connection from="69593" to="69054" fromLane="0" toLane="0" contPos="-4.00" shape="-872.88,-901.58 -871.58,-898.67 -870.55,-896.80 -869.36,-895.03 -867.99,-893.39 -866.44,-891.92 -864.70,-890.69 -862.79,-889.72 -860.76,-889.06 -858.66,-888.70 -856.52,-888.62 -854.39,-888.79 -852.29,-889.16 -850.22,-889.70" via=":15_3_0" dir="r" state="m"/>
    <connection from="69593" to="73522" fromLane="0" toLane="0" contPos="-4.00" shape="-872.88,-901.58 -871.64,-898.07 -870.66,-894.44 -870.22,-891.90 -870.04,-889.33 -870.07,-887.97 -870.23,-886.62 -870.51,-885.27 -870.96,-883.93 -871.58,-882.65 -872.38,-881.44 -873.36,-880.37 -874.46,-879.44 -875.67,-878.68 -876.93,-878.08 -878.20,-877.62" via=":15_4_0" dir="L" state="m"/>
    <connection from="69593" to="73519" fromLane="0" toLane="0" contPos="-4.00" shape="-872.88,-901.58 -871.64,-898.07 -870.66,-894.44 -870.22,-891.90 -870.04,-889.33 -870.07,-887.97 -870.23,-886.62 -870.51,-885.27 -870.96,-883.93 -871.58,-882.65 -872.38,-881.44 -873.36,-880.37 -874.46,-879.44 -875.67,-878.68 -876.93,-878.08 -878.20,-877.62" via=":15_5_0" dir="l" state="m"/>
    <connection from="69674" to="69594" fromLane="0" toLane="0" contPos="-4.00" shape="-879.25,-880.96 -878.25,-881.32 -877.30,-881.79 -876.42,-882.39 -875.63,-883.10 -874.97,-883.93 -874.44,-884.85 -874.05,-885.84 -873.78,-886.87 -873.62,-887.92 -873.56,-888.98 -873.58,-890.05 -873.80,-892.16 -874.20,-894.25 -875.07,-897.32 -876.14,-900.31" via=":15_6_0" dir="r" state="M"/>
    <connection from="69674" to="69054" fromLane="0" toLane="0" contPos="-4.00" shape="-879.25,-880.96 -864.74,-885.33 -850.22,-889.70" via=":15_7_0" dir="s" state="M"/>
    <connection from="73519" to="69212" fromLane="0" toLane="1" contPos="-4.00" via=":8_0_0" dir="s" state="M"/>
    <connection from="73522" to="69212" fromLane="0" toLane="0" contPos="-4.00" via=":8_1_0" dir="s" state="M"/>

    <connection from=":12_0" to="69674" fromLane="0" toLane="0" dir="s" state="M"/>
    <connection from=":15_0" to="73522" fromLane="0" toLane="0" dir="s" state="M"/>
    <connection from=":15_1" to="73519" fromLane="0" toLane="0" dir="s" state="M"/>
    <connection from=":15_2" to="69594" fromLane="0" toLane="0" dir="l" state="M"/>
    <connection from=":15_3" to="69054" fromLane="0" toLane="0" dir="r" state="M"/>
    <connection from=":15_4" to="73522" fromLane="0" toLane="0" dir="L" state="M"/>
    <connection from=":15_5" to="73519" fromLane="0" toLane="0" dir="l" state="M"/>
    <connection from=":15_6" to="69594" fromLane="0" toLane="0" dir="r" state="M"/>
    <connection from=":15_7" to="69054" fromLane="0" toLane="0" dir="s" state="M"/>
    <connection from=":8_0" to="69212" fromLane="0" toLane="1" dir="s" state="M"/>
    <connection from=":8_1" to="69212" fromLane="0" toLane="0" dir="s" state="M"/>

</net>