<routes>
	<vehicle depart="0.1" departLane="0" departPos="40.54290758539001" departSpeed="6.9122311" id="315" type="bicycle">
		<route edges="110 238"/>
	</vehicle>
	<vehicle depart="0.1" departLane="0" departPos="23.213148631149142" departSpeed="12.315384" id="34" type="passenger">
		<route edges="106"/>
	</vehicle>
	<vehicle depart="0.1" departLane="0" departPos="70.17951977233888" departSpeed="0.0" id="38" type="passenger">
		<route edges="85 106"/>
	</vehicle>
	<vehicle depart="0.1" departLane="0" departPos="282.2603219324553" departSpeed="19.612461" id="312" type="passenger">
		<route edges="109 106"/>
	</vehicle>
	<vehicle depart="0.1" departLane="0" departPos="31.06738593346923" departSpeed="13.203843" id="316" type="passenger">
		<route edges="86"/>
	</vehicle>
	<vehicle depart="0.1" departLane="0" departPos="253.2810123737158" departSpeed="19.962569" id="318" type="passenger">
		<route edges="109 106"/>
	</vehicle>
	<vehicle depart="0.1" departLane="0" departPos="225.09436682886871" departSpeed="19.99307" id="319" type="passenger">
		<route edges="109 106"/>
	</vehicle>
	<vehicle depart="0.1" departLane="0" departPos="11.128659766188864" departSpeed="8.2643494" id="323" type="passenger">
		<route edges=":21_3 110 238"/>
	</vehicle>
	<vehicle depart="0.1" departLane="0" departPos="67.95849097700216" departSpeed="7.1706556" id="325" type="passenger">
		<route edges="107 110 238"/>
	</vehicle>
	<vehicle depart="0.1" departLane="0" departPos="63.064491784777616" departSpeed="0.093563942" id="327" type="passenger">
		<route edges="85 106"/>
	</vehicle>
	<vehicle depart="0.1" departLane="0" departPos="55.594740061827515" departSpeed="6.1955149" id="328" type="passenger">
		<route edges="107 110 238"/>
	</vehicle>
	<vehicle depart="0.1" departLane="0" departPos="44.113807671989555" departSpeed="5.3197775" id="332" type="passenger">
		<route edges="107 110 238"/>
	</vehicle>
	<vehicle depart="0.1" departLane="0" departPos="50.101822515030655" departSpeed="1.1223868" id="333" type="passenger">
		<route edges="85 106"/>
	</vehicle>
	<vehicle depart="0.1" departLane="0" departPos="41.145854432074714" departSpeed="1.8288253" id="335" type="passenger">
		<route edges="85 106"/>
	</vehicle>
	<vehicle depart="0.1" departLane="0" departPos="31.461248209471645" departSpeed="2.3840571" id="337" type="passenger">
		<route edges="85 106"/>
	</vehicle>
	<vehicle depart="0.1" departLane="0" departPos="24.025942376835758" departSpeed="4.0913105" id="338" type="passenger">
		<route edges="107 110 238"/>
	</vehicle>
	<vehicle depart="0.1" departLane="0" departPos="21.51705884620992" departSpeed="2.8491918" id="340" type="passenger">
		<route edges="85 106"/>
	</vehicle>
	<vehicle depart="0.1" departLane="0" departPos="13.496190021473325" departSpeed="3.5208843" id="342" type="passenger">
		<route edges="107 86"/>
	</vehicle>
	<vehicle depart="0.1" departLane="0" departPos="11.703168686342325" departSpeed="2.6391712" id="343" type="passenger">
		<route edges="85 106"/>
	</vehicle>
	<vehicle depart="0.1" departLane="0" departPos="4.583362591830165" departSpeed="17.281036" id="330" type="motorcycle">
		<route edges="109 106"/>
	</vehicle>
	<vehicle depart="0.1" departLane="0" departPos="55.71582536900029" departSpeed="0.43487297" id="331" type="motorcycle">
		<route edges="85 106"/>
	</vehicle>
	<vehicle depart="0.1" departLane="0" departPos="32.948134140581374" departSpeed="4.6027175" id="334" type="motorcycle">
		<route edges="107 86"/>
	</vehicle>
</routes>
