<routes>
	<vehicle depart="0.1" departLane="0" departPos="36.315093013485715" departSpeed="0.72221622" id="39" type="passenger">
		<route edges="22052 21968"/>
	</vehicle>
	<vehicle depart="0.1" departLane="0" departPos="23.887847749498956" departSpeed="0.79814618" id="316" type="passenger">
		<route edges=":19_7 21968"/>
	</vehicle>
	<vehicle depart="0.1" departLane="0" departPos="10.537378449558656" departSpeed="3.3384868" id="320" type="passenger">
		<route edges="21967 21964"/>
	</vehicle>
	<vehicle depart="0.1" departLane="0" departPos="19.730147116589038" departSpeed="1.5728967" id="323" type="passenger">
		<route edges="22593 21967 22053"/>
	</vehicle>
	<vehicle depart="0.1" departLane="0" departPos="9.243340769571638" departSpeed="1.71388" id="324" type="passenger">
		<route edges="22593 21967"/>
	</vehicle>
	<vehicle depart="0.1" departLane="0" departPos="11.442574529630816" departSpeed="7.6039191" id="325" type="passenger">
		<route edges=":19_6 22053"/>
	</vehicle>
	<vehicle depart="0.1" departLane="0" departPos="12.284463384924951" departSpeed="5.2755324" id="326" type="passenger">
		<route edges="21965 22049"/>
	</vehicle>
	<vehicle depart="0.1" departLane="0" departPos="43.23147537182587" departSpeed="1.1674379" id="33" type="motorcycle">
		<route edges="22052 22049"/>
	</vehicle>
</routes>
