<routes>
	<vehicle depart="0.1" departLane="0" departPos="12.700082231024192" departSpeed="1.9038198" id="314" type="bicycle">
		<route edges="70871 70722"/>
	</vehicle>
	<vehicle depart="0.1" departLane="0" departPos="24.40152193238107" departSpeed="8.4794082" id="349" type="passenger">
		<route edges="70871 70722"/>
	</vehicle>
	<vehicle depart="0.1" departLane="0" departPos="2.5" departSpeed="3.6187467" id="350" type="passenger">
		<route edges=":64_3 70831"/>
	</vehicle>
	<vehicle depart="0.1" departLane="0" departPos="10.456947328154113" departSpeed="8.3187809" id="357" type="passenger">
		<route edges="70871 70868"/>
	</vehicle>
</routes>
