<routes>
	<vehicle depart="0.1" departLane="0" departPos="23.948324092904297" departSpeed="6.498118" id="321" type="bicycle">
		<route edges=":35_3 68002 67498"/>
	</vehicle>
	<vehicle depart="0.1" departLane="0" departPos="62.40672132489535" departSpeed="0.0" id="31" type="passenger">
		<route edges="67177 67976"/>
	</vehicle>
	<vehicle depart="0.1" departLane="0" departPos="64.47221197498126" departSpeed="0.98162913" id="34" type="passenger">
		<route edges="67977 68002"/>
	</vehicle>
	<vehicle depart="0.1" departLane="0" departPos="54.90881208980534" departSpeed="0.0" id="37" type="passenger">
		<route edges="67177 67976"/>
	</vehicle>
	<vehicle depart="0.1" departLane="0" departPos="69.90803697622836" departSpeed="0.0" id="316" type="passenger">
		<route edges="67177 67976"/>
	</vehicle>
	<vehicle depart="0.1" departLane="0" departPos="18.49715562801317" departSpeed="9.3358945" id="339" type="passenger">
		<route edges=":35_8 67178"/>
	</vehicle>
	<vehicle depart="0.1" departLane="0" departPos="57.97576135271776" departSpeed="2.6865157" id="344" type="passenger">
		<route edges=":33_3 68005 67178"/>
	</vehicle>
	<vehicle depart="0.1" departLane="0" departPos="42.132115801410805" departSpeed="8.1800874" id="349" type="passenger">
		<route edges=":33_2 68005 67976"/>
	</vehicle>
	<vehicle depart="0.1" departLane="0" departPos="23.58145652694807" departSpeed="7.9398922" id="351" type="passenger">
		<route edges=":33_2 68005"/>
	</vehicle>
	<vehicle depart="0.1" departLane="0" departPos="1.25" departSpeed="12.822884" id="338" type="motorcycle">
		<route edges=":34_4 67498"/>
	</vehicle>
</routes>
