<routes>
	<vehicle depart="0.1" departLane="0" departPos="22.000007153616814" departSpeed="5.773218" id="1" type="passenger">
		<route edges="50201 50213 50197"/>
	</vehicle>
	<vehicle depart="0.1" departLane="0" departPos="112.52383735152179" departSpeed="1.4128872" id="2" type="passenger">
		<route edges="50195 50211 50199"/>
	</vehicle>
	<vehicle depart="0.1" departLane="0" departPos="133.55519511886126" departSpeed="2.9191746" id="4" type="passenger">
		<route edges="50205 50207 50197"/>
	</vehicle>
	<vehicle depart="0.1" departLane="0" departPos="141.55526412418538" departSpeed="5.8445114" id="5" type="passenger">
		<route edges="50205 50217 50199"/>
	</vehicle>
	<vehicle depart="0.1" departLane="0" departPos="12.0296824929303" departSpeed="4.3250391" id="7" type="passenger">
		<route edges="50201 50213 50197"/>
	</vehicle>
</routes>
