<routes>
	<vehicle depart="0.1" departLane="0" departPos="18.902870848352517" departSpeed="0.67956877" id="315" type="bicycle">
		<route edges="2476 2047"/>
	</vehicle>
	<vehicle depart="0.1" departLane="0" departPos="1.0" departSpeed="8.4318767" id="329" type="bicycle">
		<route edges="1755 3810"/>
	</vehicle>
	<vehicle depart="0.1" departLane="1" departPos="8.964751057809309" departSpeed="0.28413677" id="317" type="passenger">
		<route edges="1755 2047"/>
	</vehicle>
	<vehicle depart="0.1" departLane="0" departPos="18.57313137437066" departSpeed="1.5258008" id="318" type="passenger">
		<route edges=":25_9 2047"/>
	</vehicle>
	<vehicle depart="0.1" departLane="0" departPos="33.18187790804944" departSpeed="10.195115" id="337" type="passenger">
		<route edges=":25_3 2047 3554 2551"/>
	</vehicle>
	<vehicle depart="0.1" departLane="0" departPos="28.550651687741983" departSpeed="11.675574" id="338" type="passenger">
		<route edges=":28_0 1755 3810"/>
	</vehicle>
	<vehicle depart="0.1" departLane="0" departPos="2.5" departSpeed="3.6007014" id="343" type="passenger">
		<route edges=":25_4 1753"/>
	</vehicle>
	<vehicle depart="0.1" departLane="0" departPos="1.25" departSpeed="13.891784" id="334" type="motorcycle">
		<route edges="1753 3808 1701"/>
	</vehicle>
	<vehicle depart="0.1" departLane="0" departPos="16.71699826037904" departSpeed="8.3683007" id="340" type="motorcycle">
		<route edges=":25_4 1753 3808 1701"/>
	</vehicle>
	<vehicle depart="0.1" departLane="0" departPos="24.55529735321791" departSpeed="0.0" id="30" type="truck">
		<route edges="2049 2478"/>
	</vehicle>
</routes>
