<routes>
	<vehicle depart="0.1" departLane="0" departPos="56.51956662864754" departSpeed="2.1151999" id="324" type="passenger">
		<route edges="11218 11215"/>
	</vehicle>
	<vehicle depart="0.1" departLane="0" departPos="69.54538600576936" departSpeed="0.0" id="335" type="passenger">
		<route edges="11729 11215"/>
	</vehicle>
	<vehicle depart="0.1" departLane="0" departPos="62.34372522069838" departSpeed="0.0001260141" id="337" type="passenger">
		<route edges="11729 11215"/>
	</vehicle>
	<vehicle depart="0.1" departLane="0" departPos="54.87376867141765" departSpeed="0.0016908428" id="343" type="passenger">
		<route edges="11729 11215"/>
	</vehicle>
	<vehicle depart="0.1" departLane="0" departPos="20.986646745086137" departSpeed="3.9795527" id="345" type="passenger">
		<route edges=":37_2 11219"/>
	</vehicle>
	<vehicle depart="0.1" departLane="0" departPos="47.36246175710924" departSpeed="0.010957201" id="347" type="passenger">
		<route edges="11729 11215"/>
	</vehicle>
	<vehicle depart="0.1" departLane="0" departPos="31.241588786388814" departSpeed="12.566285" id="348" type="passenger">
		<route edges=":39_3 11216 11219"/>
	</vehicle>
	<vehicle depart="0.1" departLane="0" departPos="39.813132027650816" departSpeed="0.050507898" id="354" type="passenger">
		<route edges="11729 11215"/>
	</vehicle>
	<vehicle depart="0.1" departLane="0" departPos="32.323105828899216" departSpeed="0.1722462" id="357" type="passenger">
		<route edges="11729 11215"/>
	</vehicle>
	<vehicle depart="0.1" departLane="0" departPos="24.752410713940634" departSpeed="0.43167876" id="359" type="passenger">
		<route edges="11729 11215"/>
	</vehicle>
</routes>
