<routes>
	<vehicle depart="0.1" departLane="0" departPos="19.10755350002338" departSpeed="3.0323831" id="315" type="bicycle">
		<route edges=":25_5 2047"/>
	</vehicle>
	<vehicle depart="0.1" departLane="0" departPos="10.217056201848402" departSpeed="5.7711094" id="329" type="bicycle">
		<route edges=":28_0 1755 3810"/>
	</vehicle>
	<vehicle depart="0.1" departLane="1" departPos="14.470785635504464" departSpeed="0.0" id="317" type="passenger">
		<route edges="1755 2047"/>
	</vehicle>
	<vehicle depart="0.1" departLane="0" departPos="29.205889807642496" departSpeed="9.6535594" id="337" type="passenger">
		<route edges=":25_3 2047 3554"/>
	</vehicle>
	<vehicle depart="0.1" departLane="0" departPos="30.083976355334155" departSpeed="14.453349" id="341" type="passenger">
		<route edges=":28_0 1755 2478"/>
	</vehicle>
	<vehicle depart="0.1" departLane="0" departPos="2.5" departSpeed="4.5084455" id="343" type="passenger">
		<route edges=":25_4 1753"/>
	</vehicle>
	<vehicle depart="0.1" departLane="0" departPos="55.440528147636684" departSpeed="13.169666" id="334" type="motorcycle">
		<route edges=":25_4 1753 3808 1701"/>
	</vehicle>
	<vehicle depart="0.1" departLane="0" departPos="14.073311878587909" departSpeed="7.7360415" id="340" type="motorcycle">
		<route edges=":25_4 1753 3808 1701"/>
	</vehicle>
	<vehicle depart="0.1" departLane="0" departPos="24.55529735321791" departSpeed="0.0" id="30" type="truck">
		<route edges="2049 2478"/>
	</vehicle>
</routes>
