<routes>
	<vehicle depart="0.1" departLane="0" departPos="46.48520290920436" departSpeed="1.2772261" id="310" type="bicycle">
		<route edges="61998 62290"/>
	</vehicle>
	<vehicle depart="0.1" departLane="0" departPos="21.776973454806996" departSpeed="0.82800037" id="345" type="bicycle">
		<route edges="61998 62290"/>
	</vehicle>
	<vehicle depart="0.1" departLane="0" departPos="10.927662632443347" departSpeed="1.8625866" id="31" type="passenger">
		<route edges=":40_5 61995"/>
	</vehicle>
	<vehicle depart="0.1" departLane="0" departPos="56.2483124346539" departSpeed="0.72399616" id="37" type="passenger">
		<route edges="61998 62290"/>
	</vehicle>
	<vehicle depart="0.1" departLane="0" departPos="46.6797416972716" departSpeed="0.72215088" id="318" type="passenger">
		<route edges="61998 62290"/>
	</vehicle>
	<vehicle depart="0.1" departLane="0" departPos="15.5514575329648" departSpeed="8.2244933" id="333" type="passenger">
		<route edges="62290"/>
	</vehicle>
	<vehicle depart="0.1" departLane="0" departPos="2.5" departSpeed="7.9719426" id="337" type="passenger">
		<route edges=":40_1 61999"/>
	</vehicle>
	<vehicle depart="0.1" departLane="0" departPos="27.306813994950282" departSpeed="1.1217791" id="341" type="passenger">
		<route edges="61998 62290"/>
	</vehicle>
	<vehicle depart="0.1" departLane="0" departPos="16.759199758180138" departSpeed="0.56632738" id="352" type="passenger">
		<route edges="61998 62290"/>
	</vehicle>
	<vehicle depart="0.1" departLane="0" departPos="38.87862657003589" departSpeed="0.77371983" id="334" type="truck">
		<route edges="61998 62290"/>
	</vehicle>
</routes>
