<!-- generated on 2020-12-18 15:42:23.046135 by ipykernel_launcher.py v1_2_0+5214-53edc58fcd
-->
<connections/>
