<?xml version="1.0" encoding="UTF-8"?>

<!-- generated on Fri Dec 18 15:42:23 2020 by Eclipse SUMO netconvert Version 1.8.0
<configuration xmlns:xsi="http://www.w3.org/2001/XMLSchema-instance" xsi:noNamespaceSchemaLocation="http://sumo.dlr.de/xsd/netconvertConfiguration.xsd">

    <input>
        <node-files value="./converted_scenarios/hand-crafted/DEU_A99-1_1_I-1-1/nodes.net.xml"/>
        <edge-files value="./converted_scenarios/hand-crafted/DEU_A99-1_1_I-1-1/edges.net.xml"/>
        <connection-files value="./converted_scenarios/hand-crafted/DEU_A99-1_1_I-1-1/_connections.net.xml"/>
        <tllogic-files value="./converted_scenarios/hand-crafted/DEU_A99-1_1_I-1-1/_tll.net.xml"/>
    </input>

    <output>
        <output-file value="./converted_scenarios/hand-crafted/DEU_A99-1_1_I-1-1/DEU_A99-1_1_I-1-1.net.xml"/>
    </output>

    <processing>
        <plain.extend-edge-shape value="true"/>
        <geometry.remove.keep-edges.explicit value="true"/>
        <geometry.avoid-overlap value="true"/>
        <offset.disable-normalization value="true"/>
    </processing>

    <junctions>
        <no-turnarounds value="true"/>
        <junctions.internal-link-detail value="20"/>
    </junctions>

    <report>
        <aggregate-warnings value="5"/>
    </report>

    <random_number>
        <seed value="1234"/>
    </random_number>

</configuration>
-->

<net version="1.6" junctionCornerDetail="5" junctionLinkDetail="20" limitTurnSpeed="5.50" xmlns:xsi="http://www.w3.org/2001/XMLSchema-instance" xsi:noNamespaceSchemaLocation="http://sumo.dlr.de/xsd/net_file.xsd">

    <location netOffset="0.00,0.00" convBoundary="-674.18,-35.82,1773.66,114.85" origBoundary="-674.56,-39.75,1774.37,118.43" projParameter="!"/>

    <edge id="47629" from="1" to="2" priority="1" spreadType="center" length="2454.16">
        <lane id="47629_0" index="0" disallow="rail_fast" speed="36.11" length="2454.16" width="3.46" customShape="1" shape="-673.82,-39.75 -619.95,-34.79 -581.25,-31.45 -581.15,-31.45 -539.33,-28.13 -539.16,-28.11 -506.89,-25.48 -455.74,-21.79 -388.24,-17.25 -328.43,-13.68 -266.42,-10.18 -213.30,-7.65 -213.14,-7.65 -135.97,-4.40 -75.12,-2.03 -7.34,0.11 57.95,1.92 58.07,1.92 124.52,3.50 190.20,5.16 247.11,6.46 309.60,7.65 375.86,8.92 439.64,10.24 508.91,11.69 564.01,12.77 644.57,14.85 714.72,16.72 792.06,19.32 872.27,22.21 872.39,22.21 944.12,25.33 1027.42,29.45 1130.66,35.81 1233.54,43.34 1327.93,51.59 1328.05,51.60 1415.75,60.92 1472.37,67.77 1528.92,74.78 1598.32,84.09 1670.47,94.66 1670.59,94.68 1737.34,105.19 1737.45,105.21 1774.25,111.26"/>
        <lane id="47629_1" index="1" disallow="rail_fast" speed="36.11" length="2454.16" width="3.47" customShape="1" shape="-674.18,-35.77 -620.30,-30.81 -581.58,-27.62 -539.63,-24.27 -507.21,-21.63 -456.02,-17.87 -455.89,-17.86 -388.49,-13.39 -328.56,-9.79 -266.63,-6.35 -213.48,-3.81 -136.13,-0.54 -75.27,1.85 -7.46,3.92 57.97,5.78 124.43,7.33 190.10,9.07 247.03,10.27 309.52,11.56 375.79,12.71 439.56,14.06 508.83,15.52 563.92,16.60 644.47,18.72 714.53,20.55 791.93,23.15 872.12,25.98 943.94,29.18 1027.14,33.23 1130.42,39.60 1233.24,47.19 1327.60,55.36 1327.74,55.37 1415.35,64.50 1471.95,71.21 1528.37,78.40 1597.79,87.67 1669.93,98.33 1736.75,108.83 1773.67,114.83"/>
        <lane id="47629_2" index="2" disallow="rail_fast" speed="36.11" length="2454.16" width="3.34" customShape="1" shape="-674.56,-31.94 -620.65,-26.99 -620.46,-26.97 -581.92,-23.82 -539.93,-20.50 -507.51,-17.89 -456.28,-14.13 -456.14,-14.12 -388.74,-9.65 -328.78,-6.05 -266.79,-2.54 -213.61,-0.08 -136.32,3.22 -75.39,5.60 -7.57,7.67 57.76,9.57 57.88,9.57 124.34,11.08 190.01,12.82 246.94,14.02 309.45,15.30 375.69,16.53 439.36,17.85 439.48,17.85 508.75,19.27 563.83,20.44 644.28,22.60 714.37,24.33 791.79,27.05 871.99,29.83 943.74,32.97 1026.95,37.02 1130.15,43.34 1232.93,50.93 1327.38,59.13 1414.97,68.09 1471.57,74.74 1527.93,81.93 1597.31,91.23 1669.35,101.93 1736.12,112.30 1773.07,118.44"/>
    </edge>

    <junction id="1" type="dead_end" x="-674.18" y="-35.82" incLanes="" intLanes="" shape="-674.69,-30.28 -673.66,-41.48"/>
    <junction id="2" type="dead_end" x="1773.66" y="114.85" incLanes="47629_0 47629_1 47629_2" intLanes="" shape="1774.53,109.56 1772.80,120.09"/>

</net>
