<routes>
	<vehicle depart="0.1" departLane="0" departPos="19.016243576945683" departSpeed="0.00050913242" id="332" type="bicycle">
		<route edges="66455 66458"/>
	</vehicle>
	<vehicle depart="0.1" departLane="0" departPos="2.5" departSpeed="0.0" id="31" type="passenger">
		<route edges="66507 66510"/>
	</vehicle>
	<vehicle depart="0.1" departLane="0" departPos="23.340553692644924" departSpeed="1.1205287" id="35" type="passenger">
		<route edges=":55_2 66510"/>
	</vehicle>
	<vehicle depart="0.1" departLane="0" departPos="17.760163033762126" departSpeed="0.97882658" id="325" type="passenger">
		<route edges=":53_3 66509"/>
	</vehicle>
	<vehicle depart="0.1" departLane="0" departPos="25.01849851730697" departSpeed="2.4667132e-05" id="326" type="passenger">
		<route edges="66455 66458"/>
	</vehicle>
	<vehicle depart="0.1" departLane="0" departPos="14.852102769627802" departSpeed="0.003837966" id="341" type="passenger">
		<route edges="66455 66458"/>
	</vehicle>
	<vehicle depart="0.1" departLane="0" departPos="7.675123969248504" departSpeed="0.016892749" id="347" type="passenger">
		<route edges="66455 66458"/>
	</vehicle>
	<vehicle depart="0.1" departLane="0" departPos="19.13215895684885" departSpeed="10.725809" id="352" type="passenger">
		<route edges=":51_3 66668 66506"/>
	</vehicle>
	<vehicle depart="0.1" departLane="0" departPos="22.489677458180964" departSpeed="0.37656113" id="30" type="truck">
		<route edges=":55_1 66667"/>
	</vehicle>
</routes>
