<routes>
	<vehicle depart="0.1" departLane="0" departPos="3.4072712713192237" departSpeed="0.21520421" id="39" type="bicycle">
		<route edges="46431 46434"/>
	</vehicle>
	<vehicle depart="0.1" departLane="0" departPos="15.074293716244132" departSpeed="0.97631307" id="312" type="passenger">
		<route edges="46433 46733"/>
	</vehicle>
	<vehicle depart="0.1" departLane="0" departPos="10.183644787838729" departSpeed="0.12840088" id="334" type="passenger">
		<route edges="46431 46434"/>
	</vehicle>
	<vehicle depart="0.1" departLane="0" departPos="22.005301441867985" departSpeed="0.0" id="341" type="passenger">
		<route edges="46434 46437"/>
	</vehicle>
	<vehicle depart="0.1" departLane="0" departPos="14.49663258157231" departSpeed="0.0072566139" id="349" type="passenger">
		<route edges="46434 46437"/>
	</vehicle>
	<vehicle depart="0.1" departLane="0" departPos="6.929544071625039" departSpeed="0.068984265" id="353" type="passenger">
		<route edges="46434 46437"/>
	</vehicle>
	<vehicle depart="0.1" departLane="0" departPos="22.929623633783574" departSpeed="7.1523298" id="367" type="passenger">
		<route edges="46736 46434"/>
	</vehicle>
	<vehicle depart="0.1" departLane="0" departPos="10.815060631779682" departSpeed="5.18691" id="370" type="passenger">
		<route edges="46736 46434"/>
	</vehicle>
	<vehicle depart="0.1" departLane="0" departPos="34.612996843606744" departSpeed="7.0369828" id="365" type="truck">
		<route edges="46736 46733"/>
	</vehicle>
</routes>
