<!-- generated on Tue Feb  9 22:18:06 2021 by Eclipse SUMO netconvert Version 1.8.0
<configuration xmlns:xsi="http://www.w3.org/2001/XMLSchema-instance" xsi:noNamespaceSchemaLocation="http://sumo.dlr.de/xsd/netconvertConfiguration.xsd">

    <input>
        <node-files value="./converted_scenarios/scenario-factory/ITA_Siderno-8_3_I-1-1/ITA_Siderno-8_3_I-1-1.nod.xml"/>
        <edge-files value="./converted_scenarios/scenario-factory/ITA_Siderno-8_3_I-1-1/ITA_Siderno-8_3_I-1-1.edg.xml"/>
        <connection-files value="./converted_scenarios/scenario-factory/ITA_Siderno-8_3_I-1-1/ITA_Siderno-8_3_I-1-1.con.xml"/>
        <tllogic-files value="./converted_scenarios/scenario-factory/ITA_Siderno-8_3_I-1-1/ITA_Siderno-8_3_I-1-1.tll.xml"/>
        <type-files value="/home/zen/commonroad-interactive-benchmarks/install/commonroad-map-tool/crmapconverter/sumo_map/templates/DEU.typ.xml"/>
    </input>

    <output>
        <output-file value="./converted_scenarios/scenario-factory/ITA_Siderno-8_3_I-1-1/ITA_Siderno-8_3_I-1-1.net.xml"/>
    </output>

    <processing>
        <geometry.remove.keep-edges.explicit value="true"/>
        <geometry.avoid-overlap value="true"/>
        <offset.disable-normalization value="true"/>
    </processing>

    <junctions>
        <no-turnarounds value="true"/>
        <junctions.internal-link-detail value="20"/>
    </junctions>

    <report>
        <aggregate-warnings value="5"/>
    </report>

    <random_number>
        <seed value="1234"/>
    </random_number>

</configuration>
--><net xmlns:xsi="http://www.w3.org/2001/XMLSchema-instance" version="1.6" junctionCornerDetail="5" junctionLinkDetail="20" limitTurnSpeed="5.50" xsi:noNamespaceSchemaLocation="http://sumo.dlr.de/xsd/net_file.xsd">

    <location netOffset="0.00,0.00" convBoundary="417.09,-764.52,657.35,-513.65" origBoundary="417.09,-764.52,657.35,-513.65" projParameter="!"/>

    <type id="highway.bridleway" priority="1" speed="2.78" allow="pedestrian" oneway="1" width="2.00"/>
    <type id="highway.bus_guideway" priority="1" speed="27.78" allow="bus" oneway="1"/>
    <type id="highway.cycleway" priority="1" speed="8.33" allow="bicycle" oneway="0" width="1.00"/>
    <type id="highway.footway" priority="1" speed="2.78" allow="pedestrian" oneway="1" width="2.00"/>
    <type id="highway.ford" priority="1" speed="2.78" allow="army" oneway="0"/>
    <type id="highway.living_street" priority="2" speed="2.78" disallow="tram rail_urban rail rail_electric rail_fast ship" oneway="0"/>
    <type id="highway.motorway" priority="14" speed="39.44" allow="private emergency authority army vip passenger hov taxi bus coach delivery truck trailer motorcycle evehicle custom1 custom2" oneway="1"/>
    <type id="highway.motorway_link" priority="9" speed="22.22" allow="private emergency authority army vip passenger hov taxi bus coach delivery truck trailer motorcycle evehicle custom1 custom2" oneway="1"/>
    <type id="highway.path" priority="1" speed="2.78" allow="pedestrian bicycle" oneway="0" width="2.00"/>
    <type id="highway.pedestrian" priority="1" speed="2.78" allow="pedestrian" oneway="1" width="2.00"/>
    <type id="highway.primary" priority="12" speed="27.78" disallow="pedestrian tram rail_urban rail rail_electric rail_fast ship" oneway="0"/>
    <type id="highway.primary_link" priority="7" speed="22.22" disallow="pedestrian tram rail_urban rail rail_electric rail_fast ship" oneway="0"/>
    <type id="highway.raceway" priority="15" speed="83.33" allow="vip" oneway="0"/>
    <type id="highway.residential" priority="3" speed="13.89" disallow="pedestrian tram rail_urban rail rail_electric rail_fast ship" oneway="0"/>
    <type id="highway.secondary" priority="11" speed="27.78" disallow="pedestrian tram rail_urban rail rail_electric rail_fast ship" oneway="0"/>
    <type id="highway.secondary_link" priority="6" speed="22.22" disallow="pedestrian tram rail_urban rail rail_electric rail_fast ship" oneway="0"/>
    <type id="highway.service" priority="1" speed="5.56" allow="pedestrian delivery bicycle" oneway="0"/>
    <type id="highway.stairs" priority="1" speed="1.39" allow="pedestrian" oneway="1" width="2.00"/>
    <type id="highway.step" priority="1" speed="1.39" allow="pedestrian" oneway="1" width="2.00"/>
    <type id="highway.steps" priority="1" speed="1.39" allow="pedestrian" oneway="1" width="2.00"/>
    <type id="highway.tertiary" priority="10" speed="22.22" disallow="pedestrian tram rail_urban rail rail_electric rail_fast ship" oneway="0"/>
    <type id="highway.tertiary_link" priority="5" speed="22.22" disallow="pedestrian tram rail_urban rail rail_electric rail_fast ship" oneway="0"/>
    <type id="highway.track" priority="1" speed="5.56" allow="pedestrian motorcycle moped bicycle" oneway="0"/>
    <type id="highway.trunk" priority="13" speed="27.78" disallow="pedestrian bicycle tram rail_urban rail rail_electric rail_fast ship" oneway="0"/>
    <type id="highway.trunk_link" priority="8" speed="22.22" disallow="pedestrian bicycle tram rail_urban rail rail_electric rail_fast ship" oneway="0"/>
    <type id="highway.unclassified" priority="4" speed="13.89" disallow="pedestrian tram rail_urban rail rail_electric rail_fast ship" oneway="0"/>
    <type id="highway.unsurfaced" priority="1" speed="8.33" disallow="tram rail_urban rail rail_electric rail_fast ship" oneway="0"/>
    <type id="railway.highspeed" priority="21" speed="69.44" allow="rail_fast" oneway="1"/>
    <type id="railway.light_rail" priority="19" speed="27.78" allow="rail_urban" oneway="1"/>
    <type id="railway.preserved" priority="16" speed="27.78" allow="rail" oneway="1"/>
    <type id="railway.rail" priority="20" speed="44.44" allow="rail" oneway="1"/>
    <type id="railway.subway" priority="18" speed="27.78" allow="rail_urban" oneway="1"/>
    <type id="railway.tram" priority="17" speed="13.89" allow="tram" oneway="1"/>

    <edge id=":78_0" function="internal">
        <lane id=":78_0_0" index="0" disallow="pedestrian tram rail_urban rail rail_electric rail_fast ship" speed="8.51" length="16.69" width="3.50" shape="499.59,-681.75 498.31,-681.86 496.54,-681.74 494.80,-681.36 492.58,-680.53 490.50,-679.39 488.10,-677.67 485.46,-675.29 485.04,-674.86"/>
    </edge>
    <edge id=":78_1" function="internal">
        <lane id=":78_1_0" index="0" disallow="pedestrian tram rail_urban rail rail_electric rail_fast ship" speed="36.11" length="15.85" width="3.50" shape="502.03,-684.04 491.19,-695.60"/>
    </edge>
    <edge id=":78_2" function="internal">
        <lane id=":78_2_0" index="0" disallow="pedestrian tram rail_urban rail rail_electric rail_fast ship" speed="9.40" length="19.87" width="3.50" shape="503.43,-685.35 503.24,-685.81 502.66,-688.08 502.43,-690.42 502.53,-692.18 502.85,-693.91 503.62,-696.13 504.70,-698.21 506.41,-700.59 508.40,-702.75 508.83,-703.16"/>
    </edge>
    <edge id=":78_3" function="internal">
        <lane id=":78_3_0" index="0" disallow="pedestrian tram rail_urban rail rail_electric rail_fast ship" speed="36.11" length="36.72" width="3.50" shape="511.22,-700.61 509.70,-699.17 497.61,-687.51 485.04,-674.86"/>
    </edge>
    <edge id=":78_4" function="internal">
        <lane id=":78_4_0" index="0" disallow="pedestrian tram rail_urban rail rail_electric rail_fast ship" speed="12.04" length="16.04" width="3.50" shape="511.22,-700.60 510.49,-699.94 509.75,-699.32 509.02,-698.74 508.27,-698.20 507.53,-697.71 506.78,-697.25 506.03,-696.84 505.27,-696.47 504.51,-696.14 503.75,-695.86 502.99,-695.61 502.21,-695.41 501.44,-695.25 500.66,-695.13 499.88,-695.05 499.10,-695.02 498.31,-695.02 497.51,-695.07 496.72,-695.16"/>
    </edge>
    <edge id=":78_5" function="internal">
        <lane id=":78_5_0" index="0" disallow="pedestrian tram rail_urban rail rail_electric rail_fast ship" speed="10.62" length="20.15" width="3.50" shape="482.52,-677.30 483.63,-678.46 484.65,-679.60 485.59,-680.71 486.45,-681.79 487.23,-682.85 487.93,-683.88 488.55,-684.88 489.09,-685.85 489.55,-686.80 489.93,-687.72 490.24,-688.61 490.46,-689.47 490.60,-690.31 490.66,-691.12 490.65,-691.90 490.55,-692.65 490.37,-693.38 490.11,-694.08 489.78,-694.76"/>
    </edge>
    <edge id=":78_6" function="internal">
        <lane id=":78_6_0" index="0" disallow="pedestrian tram rail_urban rail rail_electric rail_fast ship" speed="36.11" length="36.89" width="3.50" shape="482.52,-677.30 495.16,-690.01 507.29,-701.71 508.83,-703.16"/>
    </edge>
    <edge id=":80_0" function="internal">
        <lane id=":80_0_0" index="0" disallow="pedestrian tram rail_urban rail rail_electric rail_fast ship" speed="11.04" length="28.29" width="3.50" shape="607.30,-654.94 604.93,-657.18 603.20,-658.50 601.34,-659.64 599.36,-660.53 598.32,-660.87 597.27,-661.12 596.19,-661.28 595.10,-661.34 594.02,-661.30 592.93,-661.17 591.87,-660.95 589.81,-660.25 587.87,-659.27 586.05,-658.08 584.35,-656.72 582.75,-655.23"/>
    </edge>
    <edge id=":80_1" function="internal">
        <lane id=":80_1_0" index="0" disallow="pedestrian tram rail_urban rail rail_electric rail_fast ship" speed="36.11" length="38.87" width="3.50" shape="607.30,-654.94 593.86,-668.98 580.42,-683.02"/>
    </edge>
    <edge id=":80_2" function="internal">
        <lane id=":80_2_0" index="0" disallow="pedestrian tram rail_urban rail rail_electric rail_fast ship" speed="12.32" length="34.50" width="3.50" shape="607.30,-654.94 604.71,-657.96 603.19,-660.14 601.92,-662.46 600.94,-664.93 600.59,-666.21 600.34,-667.51 600.20,-668.83 600.18,-670.16 600.27,-671.48 600.47,-672.80 600.78,-674.09 601.68,-676.58 602.90,-678.93 604.38,-681.14 606.06,-683.20 607.88,-685.13"/>
    </edge>
    <edge id=":80_3" function="internal">
        <lane id=":80_3_0" index="0" disallow="pedestrian tram rail_urban rail rail_electric rail_fast ship" speed="11.32" length="28.99" width="3.50" shape="610.34,-682.65 608.75,-680.96 607.30,-679.18 606.04,-677.30 605.01,-675.33 604.25,-673.24 604.01,-672.22 603.85,-671.16 603.77,-670.09 603.80,-669.02 603.91,-667.96 604.11,-666.90 604.38,-665.88 605.20,-663.80 606.28,-661.84 607.56,-659.99 609.83,-657.36"/>
    </edge>
    <edge id=":80_4" function="internal">
        <lane id=":80_4_0" index="0" disallow="pedestrian tram rail_urban rail rail_electric rail_fast ship" speed="36.11" length="38.90" width="3.50" shape="610.34,-682.65 596.55,-668.94 582.75,-655.23"/>
    </edge>
    <edge id=":80_5" function="internal">
        <lane id=":80_5_0" index="0" disallow="pedestrian tram rail_urban rail rail_electric rail_fast ship" speed="12.14" length="34.37" width="3.50" shape="610.34,-682.65 607.49,-680.10 605.38,-678.56 603.10,-677.25 600.67,-676.22 599.35,-675.83 598.02,-675.55 596.66,-675.38 595.29,-675.33 593.92,-675.41 592.57,-675.61 591.24,-675.92 589.93,-676.35 587.52,-677.44 585.28,-678.81 583.21,-680.40 580.42,-683.02"/>
    </edge>
    <edge id=":80_6" function="internal">
        <lane id=":80_6_0" index="0" disallow="pedestrian tram rail_urban rail rail_electric rail_fast ship" speed="11.13" length="28.72" width="3.50" shape="582.95,-685.44 585.36,-683.17 587.12,-681.82 589.00,-680.67 591.01,-679.76 592.06,-679.42 593.14,-679.17 594.23,-679.01 595.33,-678.94 596.44,-678.98 597.53,-679.11 598.62,-679.34 599.67,-679.66 601.71,-680.52 603.62,-681.62 605.41,-682.92 607.88,-685.13"/>
    </edge>
    <edge id=":80_7" function="internal">
        <lane id=":80_7_0" index="0" disallow="pedestrian tram rail_urban rail rail_electric rail_fast ship" speed="36.11" length="38.87" width="3.50" shape="582.95,-685.44 596.39,-671.40 609.83,-657.36"/>
    </edge>
    <edge id=":80_8" function="internal">
        <lane id=":80_8_0" index="0" disallow="pedestrian tram rail_urban rail rail_electric rail_fast ship" speed="12.33" length="34.50" width="3.50" shape="582.95,-685.44 585.55,-682.43 587.08,-680.25 588.38,-677.94 589.39,-675.49 589.76,-674.21 590.03,-672.92 590.20,-671.60 590.26,-670.27 590.19,-668.95 590.02,-667.63 589.74,-666.34 588.88,-663.83 587.69,-661.46 586.23,-659.24 584.57,-657.17 582.75,-655.23"/>
    </edge>
    <edge id=":80_9" function="internal">
        <lane id=":80_9_0" index="0" disallow="pedestrian tram rail_urban rail rail_electric rail_fast ship" speed="11.33" length="29.00" width="3.50" shape="580.28,-657.71 581.86,-659.40 583.30,-661.18 584.54,-663.07 585.54,-665.05 586.25,-667.15 586.47,-668.17 586.61,-669.23 586.66,-670.30 586.61,-671.37 586.48,-672.43 586.25,-673.49 585.95,-674.51 585.10,-676.58 584.00,-678.53 582.70,-680.39 580.42,-683.02"/>
    </edge>
    <edge id=":80_10" function="internal">
        <lane id=":80_10_0" index="0" disallow="pedestrian tram rail_urban rail rail_electric rail_fast ship" speed="36.11" length="38.91" width="3.50" shape="580.28,-657.71 594.08,-671.42 607.88,-685.13"/>
    </edge>
    <edge id=":80_11" function="internal">
        <lane id=":80_11_0" index="0" disallow="pedestrian tram rail_urban rail rail_electric rail_fast ship" speed="12.06" length="33.95" width="3.50" shape="580.28,-657.71 582.13,-659.43 584.12,-661.02 586.28,-662.43 588.62,-663.61 591.10,-664.45 592.45,-664.74 593.79,-664.91 595.15,-664.95 596.50,-664.87 597.84,-664.68 599.15,-664.37 600.45,-663.94 602.82,-662.87 605.03,-661.51 607.08,-659.95 609.83,-657.36"/>
    </edge>
    <edge id=":81_0" function="internal">
        <lane id=":81_0_0" index="0" disallow="pedestrian tram rail_urban rail rail_electric rail_fast ship" speed="36.11" length="15.99" width="3.50" shape="561.26,-620.89 553.70,-628.95 550.32,-632.55"/>
    </edge>
    <edge id=":81_1" function="internal">
        <lane id=":81_1_0" index="0" disallow="pedestrian tram rail_urban rail rail_electric rail_fast ship" speed="10.42" length="24.14" width="3.50" shape="561.82,-621.42 560.82,-623.26 559.98,-625.43 559.44,-627.68 559.25,-630.00 559.43,-632.31 559.99,-634.56 560.87,-636.71 562.02,-638.73 563.74,-641.07 565.70,-643.20"/>
    </edge>
    <edge id=":81_2" function="internal">
        <lane id=":81_2_0" index="0" disallow="pedestrian tram rail_urban rail rail_electric rail_fast ship" speed="8.70" length="17.24" width="3.50" shape="568.17,-640.72 565.99,-638.75 563.62,-637.03 561.56,-635.90 559.36,-635.07 557.07,-634.60 555.31,-634.51 553.55,-634.67 552.77,-634.85"/>
    </edge>
    <edge id=":82_0" function="internal">
        <lane id=":82_0_0" index="0" disallow="pedestrian tram rail_urban rail rail_electric rail_fast ship" speed="11.10" length="28.79" width="3.50" shape="639.73,-621.06 637.31,-623.34 635.55,-624.68 633.65,-625.83 631.62,-626.72 630.57,-627.05 629.49,-627.29 628.39,-627.43 627.28,-627.48 626.17,-627.42 625.08,-627.26 624.00,-627.01 621.92,-626.26 619.95,-625.23 618.12,-623.99 616.40,-622.59 614.80,-621.07"/>
    </edge>
    <edge id=":82_1" function="internal">
        <lane id=":82_1_0" index="0" disallow="pedestrian tram rail_urban rail rail_electric rail_fast ship" speed="36.11" length="39.62" width="3.50" shape="639.73,-621.06 626.03,-635.37 612.33,-649.68"/>
    </edge>
    <edge id=":82_2" function="internal">
        <lane id=":82_2_0" index="0" disallow="pedestrian tram rail_urban rail rail_electric rail_fast ship" speed="36.11" length="39.67" width="3.50" shape="642.20,-649.76 629.34,-636.05 614.80,-621.07"/>
    </edge>
    <edge id=":82_3" function="internal">
        <lane id=":82_3_0" index="0" disallow="pedestrian tram rail_urban rail rail_electric rail_fast ship" speed="12.00" length="34.66" width="3.50" shape="642.20,-649.76 639.44,-647.07 637.38,-645.44 635.13,-644.03 632.71,-642.91 631.38,-642.48 630.04,-642.16 628.67,-641.97 627.28,-641.91 625.89,-641.98 624.52,-642.18 623.19,-642.50 621.87,-642.94 619.45,-644.05 617.20,-645.44 615.13,-647.04 612.33,-649.68"/>
    </edge>
    <edge id=":82_4" function="internal">
        <lane id=":82_4_0" index="0" disallow="pedestrian tram rail_urban rail rail_electric rail_fast ship" speed="10.98" length="28.83" width="3.50" shape="614.86,-652.10 617.28,-649.82 619.04,-648.46 620.92,-647.29 622.93,-646.36 623.99,-646.02 625.07,-645.76 626.16,-645.60 627.27,-645.54 628.38,-645.58 629.48,-645.74 630.56,-645.99 631.61,-646.33 633.63,-647.25 635.51,-648.44 637.25,-649.81 639.63,-652.13"/>
    </edge>
    <edge id=":82_5" function="internal">
        <lane id=":82_5_0" index="0" disallow="pedestrian tram rail_urban rail rail_electric rail_fast ship" speed="36.11" length="39.62" width="3.50" shape="614.86,-652.10 628.56,-637.79 642.26,-623.48"/>
    </edge>
    <edge id=":82_6" function="internal">
        <lane id=":82_6_0" index="0" disallow="pedestrian tram rail_urban rail rail_electric rail_fast ship" speed="12.52" length="35.37" width="3.50" shape="614.86,-652.10 617.44,-649.13 618.96,-647.00 620.27,-644.73 621.31,-642.33 622.03,-639.81 622.24,-638.52 622.35,-637.21 622.36,-635.90 622.25,-634.59 622.04,-633.30 621.33,-630.78 620.28,-628.38 618.95,-626.12 617.41,-624.00 614.80,-621.07"/>
    </edge>
    <edge id=":82_7" function="internal">
        <lane id=":82_7_0" index="0" disallow="pedestrian tram rail_urban rail rail_electric rail_fast ship" speed="11.54" length="29.91" width="3.50" shape="612.30,-623.52 614.60,-626.10 615.92,-627.91 617.05,-629.83 617.93,-631.84 618.52,-633.95 618.68,-634.97 618.76,-636.03 618.76,-637.10 618.67,-638.16 618.50,-639.18 617.90,-641.30 617.02,-643.31 615.90,-645.24 614.60,-647.08 612.33,-649.68"/>
    </edge>
    <edge id=":82_8" function="internal">
        <lane id=":82_8_0" index="0" disallow="pedestrian tram rail_urban rail rail_electric rail_fast ship" speed="36.11" length="39.57" width="3.50" shape="612.30,-623.52 626.81,-638.47 639.63,-652.13"/>
    </edge>
    <edge id=":82_9" function="internal">
        <lane id=":82_9_0" index="0" disallow="pedestrian tram rail_urban rail rail_electric rail_fast ship" speed="12.11" length="34.50" width="3.50" shape="612.30,-623.52 614.16,-625.29 616.17,-626.92 618.33,-628.38 620.69,-629.61 623.19,-630.51 624.55,-630.83 625.91,-631.02 627.29,-631.09 628.66,-631.03 630.03,-630.85 631.36,-630.55 632.69,-630.14 635.11,-629.07 637.37,-627.70 639.46,-626.11 642.26,-623.48"/>
    </edge>
    <edge id=":83_0" function="internal">
        <lane id=":83_0_0" index="0" disallow="pedestrian tram rail_urban rail rail_electric rail_fast ship" speed="11.29" length="28.97" width="3.50" shape="551.12,-713.63 548.69,-715.92 546.92,-717.28 545.02,-718.44 542.99,-719.37 541.94,-719.72 540.85,-719.98 539.75,-720.16 538.64,-720.24 537.53,-720.22 536.42,-720.11 535.32,-719.90 533.20,-719.24 531.18,-718.29 529.28,-717.13 527.50,-715.79 525.82,-714.32"/>
    </edge>
    <edge id=":83_1" function="internal">
        <lane id=":83_1_0" index="0" disallow="pedestrian tram rail_urban rail rail_electric rail_fast ship" speed="36.11" length="39.08" width="3.50" shape="551.12,-713.63 537.61,-727.75 524.09,-741.86"/>
    </edge>
    <edge id=":83_2" function="internal">
        <lane id=":83_2_0" index="0" disallow="pedestrian tram rail_urban rail rail_electric rail_fast ship" speed="12.02" length="34.29" width="3.50" shape="551.12,-713.63 548.54,-716.63 547.02,-718.79 545.74,-721.09 544.77,-723.54 544.42,-724.82 544.18,-726.11 544.05,-727.43 544.05,-728.75 544.16,-730.06 544.40,-731.36 544.75,-732.63 545.20,-733.87 546.38,-736.23 547.85,-738.42 549.54,-740.45 552.37,-743.21"/>
    </edge>
    <edge id=":83_3" function="internal">
        <lane id=":83_3_0" index="0" disallow="pedestrian tram rail_urban rail rail_electric rail_fast ship" speed="11.01" length="28.58" width="3.50" shape="554.70,-740.60 552.22,-738.18 550.79,-736.47 549.56,-734.63 548.57,-732.66 548.22,-731.69 547.94,-730.67 547.75,-729.64 547.66,-728.59 547.67,-727.55 547.77,-726.50 547.96,-725.46 548.23,-724.46 549.04,-722.42 550.12,-720.48 551.40,-718.65 553.65,-716.05"/>
    </edge>
    <edge id=":83_4" function="internal">
        <lane id=":83_4_0" index="0" disallow="pedestrian tram rail_urban rail rail_electric rail_fast ship" speed="36.11" length="39.05" width="3.50" shape="554.70,-740.60 541.67,-728.95 525.82,-714.32"/>
    </edge>
    <edge id=":83_5" function="internal">
        <lane id=":83_5_0" index="0" disallow="pedestrian tram rail_urban rail rail_electric rail_fast ship" speed="36.11" length="39.08" width="3.50" shape="526.62,-744.28 540.14,-730.17 553.65,-716.05"/>
    </edge>
    <edge id=":83_6" function="internal">
        <lane id=":83_6_0" index="0" disallow="pedestrian tram rail_urban rail rail_electric rail_fast ship" speed="12.19" length="34.46" width="3.50" shape="526.62,-744.28 529.22,-741.27 530.74,-739.10 532.03,-736.78 533.01,-734.32 533.37,-733.04 533.62,-731.74 533.76,-730.42 533.78,-729.10 533.69,-727.78 533.48,-726.47 533.16,-725.18 532.22,-722.71 530.94,-720.38 529.42,-718.21 527.69,-716.20 525.82,-714.32"/>
    </edge>
    <edge id=":83_7" function="internal">
        <lane id=":83_7_0" index="0" disallow="pedestrian tram rail_urban rail rail_electric rail_fast ship" speed="11.19" length="28.85" width="3.50" shape="523.42,-716.87 525.06,-718.50 526.54,-720.24 527.84,-722.08 528.90,-724.02 529.68,-726.08 529.93,-727.09 530.10,-728.14 530.18,-729.20 530.16,-730.26 530.05,-731.31 529.84,-732.37 529.56,-733.38 528.74,-735.44 527.65,-737.39 526.36,-739.24 524.09,-741.86"/>
    </edge>
    <edge id=":83_8" function="internal">
        <lane id=":83_8_0" index="0" disallow="pedestrian tram rail_urban rail rail_electric rail_fast ship" speed="36.11" length="39.14" width="3.50" shape="523.42,-716.87 539.32,-731.54 552.37,-743.21"/>
    </edge>
    <edge id=":83_9" function="internal">
        <lane id=":83_9_0" index="0" disallow="pedestrian tram rail_urban rail rail_electric rail_fast ship" speed="12.29" length="34.52" width="3.50" shape="523.42,-716.87 525.36,-718.57 527.44,-720.12 529.67,-721.50 532.09,-722.62 534.63,-723.42 536.00,-723.68 537.37,-723.82 538.74,-723.84 540.11,-723.74 541.47,-723.52 542.79,-723.20 544.10,-722.76 546.51,-721.66 548.77,-720.28 550.85,-718.68 553.65,-716.05"/>
    </edge>
    <edge id=":84_0" function="internal">
        <lane id=":84_0_0" index="0" disallow="pedestrian tram rail_urban rail rail_electric rail_fast ship" speed="11.36" length="29.39" width="3.50" shape="466.15,-630.00 463.71,-632.36 461.98,-633.72 460.14,-634.88 458.20,-635.80 456.14,-636.43 455.14,-636.61 454.10,-636.71 453.06,-636.72 452.02,-636.65 451.01,-636.50 448.91,-635.94 446.92,-635.10 444.99,-634.03 443.16,-632.78 440.54,-630.61"/>
    </edge>
    <edge id=":84_1" function="internal">
        <lane id=":84_1_0" index="0" disallow="pedestrian tram rail_urban rail rail_electric rail_fast ship" speed="36.11" length="38.78" width="3.50" shape="466.15,-630.00 448.60,-648.53 439.37,-658.05"/>
    </edge>
    <edge id=":84_2" function="internal">
        <lane id=":84_2_0" index="0" disallow="pedestrian tram rail_urban rail rail_electric rail_fast ship" speed="12.53" length="34.77" width="3.50" shape="466.15,-630.00 464.50,-631.89 462.99,-633.91 461.65,-636.08 460.53,-638.41 459.71,-640.89 459.24,-643.45 459.16,-644.81 459.18,-646.14 459.31,-647.46 459.54,-648.79 460.27,-651.27 461.31,-653.65 462.59,-655.86 464.07,-657.93 466.52,-660.76"/>
    </edge>
    <edge id=":84_3" function="internal">
        <lane id=":84_3_0" index="0" disallow="pedestrian tram rail_urban rail rail_electric rail_fast ship" speed="11.55" length="29.39" width="3.50" shape="469.04,-658.34 466.90,-655.87 465.64,-654.10 464.54,-652.21 463.67,-650.22 463.06,-648.13 462.87,-647.06 462.76,-645.97 462.74,-644.89 462.81,-643.80 463.20,-641.66 463.88,-639.59 464.82,-637.63 465.97,-635.77 467.27,-634.03 468.70,-632.39"/>
    </edge>
    <edge id=":84_4" function="internal">
        <lane id=":84_4_0" index="0" disallow="pedestrian tram rail_urban rail rail_electric rail_fast ship" speed="36.11" length="39.77" width="3.50" shape="469.04,-658.34 458.76,-647.90 448.22,-637.72 440.54,-630.61"/>
    </edge>
    <edge id=":84_5" function="internal">
        <lane id=":84_5_0" index="0" disallow="pedestrian tram rail_urban rail rail_electric rail_fast ship" speed="12.08" length="34.30" width="3.50" shape="469.04,-658.34 466.16,-655.62 464.07,-654.01 461.82,-652.63 459.42,-651.53 458.17,-651.12 456.89,-650.81 455.58,-650.61 454.27,-650.53 452.95,-650.58 451.64,-650.74 450.35,-651.02 449.08,-651.40 446.66,-652.44 444.39,-653.79 442.28,-655.37 439.37,-658.05"/>
    </edge>
    <edge id=":84_6" function="internal">
        <lane id=":84_6_0" index="0" disallow="pedestrian tram rail_urban rail rail_electric rail_fast ship" speed="11.07" length="28.62" width="3.50" shape="441.86,-660.51 444.40,-658.17 446.19,-656.83 448.09,-655.70 450.11,-654.83 451.10,-654.53 452.14,-654.31 453.18,-654.18 454.23,-654.15 455.28,-654.21 456.32,-654.37 457.35,-654.62 458.34,-654.94 460.35,-655.86 462.23,-657.03 464.01,-658.39 466.52,-660.76"/>
    </edge>
    <edge id=":84_7" function="internal">
        <lane id=":84_7_0" index="0" disallow="pedestrian tram rail_urban rail rail_electric rail_fast ship" speed="36.11" length="38.87" width="3.50" shape="441.86,-660.51 451.13,-650.95 468.70,-632.39"/>
    </edge>
    <edge id=":84_8" function="internal">
        <lane id=":84_8_0" index="0" disallow="pedestrian tram rail_urban rail rail_electric rail_fast ship" speed="36.11" length="39.56" width="3.50" shape="438.17,-633.18 445.82,-640.26 456.30,-650.38 466.52,-660.76"/>
    </edge>
    <edge id=":84_9" function="internal">
        <lane id=":84_9_0" index="0" disallow="pedestrian tram rail_urban rail rail_electric rail_fast ship" speed="12.34" length="34.94" width="3.50" shape="438.17,-633.18 441.17,-635.67 443.31,-637.13 445.58,-638.38 447.96,-639.37 450.46,-640.04 451.74,-640.23 453.03,-640.32 454.33,-640.30 455.61,-640.17 456.89,-639.94 459.36,-639.18 461.69,-638.07 463.88,-636.68 465.91,-635.08 468.70,-632.39"/>
    </edge>
    <edge id=":85_0" function="internal">
        <lane id=":85_0_0" index="0" disallow="pedestrian tram rail_urban rail rail_electric rail_fast ship" speed="36.11" length="38.84" width="3.50" shape="555.67,-536.52 542.03,-550.34 528.38,-564.16"/>
    </edge>
    <edge id=":85_1" function="internal">
        <lane id=":85_1_0" index="0" disallow="pedestrian tram rail_urban rail rail_electric rail_fast ship" speed="12.26" length="34.38" width="3.50" shape="555.67,-536.52 553.04,-539.48 551.49,-541.63 550.17,-543.91 549.13,-546.34 548.74,-547.61 548.46,-548.90 548.28,-550.21 548.21,-551.53 548.26,-552.85 548.42,-554.16 548.70,-555.45 549.07,-556.72 550.09,-559.15 551.42,-561.44 552.97,-563.58 555.64,-566.54"/>
    </edge>
    <edge id=":85_2" function="internal">
        <lane id=":85_2_0" index="0" disallow="pedestrian tram rail_urban rail rail_electric rail_fast ship" speed="11.26" length="28.83" width="3.50" shape="558.11,-564.07 555.78,-561.48 554.46,-559.67 553.35,-557.75 552.49,-555.70 552.20,-554.69 551.98,-553.65 551.85,-552.59 551.81,-551.53 551.87,-550.47 552.01,-549.41 552.25,-548.37 552.55,-547.36 553.43,-545.31 554.55,-543.38 555.87,-541.56 558.17,-538.97"/>
    </edge>
    <edge id=":85_3" function="internal">
        <lane id=":85_3_0" index="0" disallow="pedestrian tram rail_urban rail rail_electric rail_fast ship" speed="36.11" length="38.79" width="3.50" shape="558.11,-564.07 544.37,-550.34 530.67,-536.65"/>
    </edge>
    <edge id=":85_4" function="internal">
        <lane id=":85_4_0" index="0" disallow="pedestrian tram rail_urban rail rail_electric rail_fast ship" speed="12.14" length="34.13" width="3.50" shape="558.11,-564.07 555.17,-561.42 553.05,-559.87 550.78,-558.55 548.37,-557.53 547.11,-557.15 545.83,-556.88 544.53,-556.72 543.22,-556.66 541.91,-556.73 540.61,-556.91 539.33,-557.20 536.85,-558.06 534.52,-559.26 532.33,-560.71 530.29,-562.36 528.38,-564.16"/>
    </edge>
    <edge id=":85_5" function="internal">
        <lane id=":85_5_0" index="0" disallow="pedestrian tram rail_urban rail rail_electric rail_fast ship" speed="11.13" length="28.53" width="3.50" shape="530.87,-566.62 532.52,-565.06 534.28,-563.64 536.13,-562.41 538.07,-561.41 540.14,-560.69 541.14,-560.47 542.18,-560.32 543.23,-560.27 544.28,-560.31 545.32,-560.44 546.36,-560.66 547.35,-560.96 549.37,-561.81 551.28,-562.92 553.08,-564.23 555.64,-566.54"/>
    </edge>
    <edge id=":85_6" function="internal">
        <lane id=":85_6_0" index="0" disallow="pedestrian tram rail_urban rail rail_electric rail_fast ship" speed="36.11" length="38.86" width="3.50" shape="530.87,-566.62 544.52,-552.80 558.17,-538.97"/>
    </edge>
    <edge id=":85_7" function="internal">
        <lane id=":85_7_0" index="0" disallow="pedestrian tram rail_urban rail rail_electric rail_fast ship" speed="12.24" length="34.26" width="3.50" shape="530.87,-566.62 533.41,-563.78 534.94,-561.66 536.25,-559.38 537.26,-556.95 537.65,-555.63 537.92,-554.29 538.09,-552.94 538.13,-551.57 538.05,-550.21 537.86,-548.86 537.55,-547.54 537.14,-546.23 536.09,-543.82 534.75,-541.56 533.21,-539.47 530.67,-536.65"/>
    </edge>
    <edge id=":85_8" function="internal">
        <lane id=":85_8_0" index="0" disallow="pedestrian tram rail_urban rail rail_electric rail_fast ship" speed="11.23" length="28.70" width="3.50" shape="528.19,-539.12 530.40,-541.57 531.71,-543.35 532.84,-545.25 533.72,-547.27 534.05,-548.33 534.30,-549.40 534.46,-550.50 534.53,-551.60 534.49,-552.70 534.36,-553.80 534.14,-554.88 533.83,-555.94 532.98,-557.98 531.88,-559.90 530.59,-561.69 528.38,-564.16"/>
    </edge>
    <edge id=":85_9" function="internal">
        <lane id=":85_9_0" index="0" disallow="pedestrian tram rail_urban rail rail_electric rail_fast ship" speed="36.11" length="38.80" width="3.50" shape="528.19,-539.12 541.90,-552.82 555.64,-566.54"/>
    </edge>
    <edge id=":86_0" function="internal">
        <lane id=":86_0_0" index="0" disallow="pedestrian tram rail_urban rail rail_electric rail_fast ship" speed="8.55" length="16.67" width="3.50" shape="588.86,-586.72 587.56,-586.85 585.79,-586.77 584.05,-586.43 581.82,-585.65 579.72,-584.56 577.29,-582.89 574.62,-580.55 574.20,-580.14"/>
    </edge>
    <edge id=":86_1" function="internal">