<routes>
	<vehicle depart="0.1" departLane="0" departPos="64.10043675782926" departSpeed="6.8930808" id="312" type="bicycle">
		<route edges="989"/>
	</vehicle>
	<vehicle depart="0.1" departLane="0" departPos="68.02864928364592" departSpeed="6.7120355" id="324" type="bicycle">
		<route edges="950 2177"/>
	</vehicle>
	<vehicle depart="0.1" departLane="0" departPos="6.2" departSpeed="6.1408762" id="323" type="bus">
		<route edges="989"/>
	</vehicle>
	<vehicle depart="0.1" departLane="0" departPos="39.290649602196574" departSpeed="13.355148" id="315" type="passenger">
		<route edges="951"/>
	</vehicle>
	<vehicle depart="0.1" departLane="0" departPos="2.5" departSpeed="0.0" id="318" type="passenger">
		<route edges="80 989"/>
	</vehicle>
	<vehicle depart="0.1" departLane="0" departPos="41.187937582540314" departSpeed="12.48177" id="320" type="passenger">
		<route edges="989"/>
	</vehicle>
	<vehicle depart="0.1" departLane="0" departPos="49.73035897999265" departSpeed="16.592081" id="321" type="passenger">
		<route edges="925 951"/>
	</vehicle>
	<vehicle depart="0.1" departLane="1" departPos="30.487083483533834" departSpeed="15.834631" id="322" type="passenger">
		<route edges="925 989"/>
	</vehicle>
	<vehicle depart="0.1" departLane="1" departPos="11.003900571122028" departSpeed="15.288123" id="325" type="passenger">
		<route edges="925 989"/>
	</vehicle>
	<vehicle depart="0.1" departLane="0" departPos="54.864203647013795" departSpeed="13.63293" id="329" type="passenger">
		<route edges="936 925 989"/>
	</vehicle>
	<vehicle depart="0.1" departLane="0" departPos="44.41297802073408" departSpeed="5.7653728" id="330" type="passenger">
		<route edges="950 989"/>
	</vehicle>
	<vehicle depart="0.1" departLane="0" departPos="31.832968656635323" departSpeed="5.7793958" id="332" type="passenger">
		<route edges="950 2177"/>
	</vehicle>
	<vehicle depart="0.1" departLane="0" departPos="19.65861196424438" departSpeed="5.3699087" id="334" type="passenger">
		<route edges="950 2177"/>
	</vehicle>
	<vehicle depart="0.1" departLane="0" departPos="9.24325182100393" departSpeed="4.0477079" id="336" type="passenger">
		<route edges="950 989"/>
	</vehicle>
	<vehicle depart="0.1" departLane="0" departPos="67.5045695927905" departSpeed="5.8247899" id="326" type="motorcycle">
		<route edges="950 2177"/>
	</vehicle>
	<vehicle depart="0.1" departLane="1" departPos="7.434601381405657" departSpeed="15.938858" id="327" type="motorcycle">
		<route edges=":17_0 925 989"/>
	</vehicle>
	<vehicle depart="0.1" departLane="0" departPos="32.23957496028174" departSpeed="10.304462" id="331" type="motorcycle">
		<route edges="936 925 989"/>
	</vehicle>
	<vehicle depart="0.1" departLane="1" departPos="71.58510275127688" departSpeed="17.076169" id="319" type="truck">
		<route edges="925 989"/>
	</vehicle>
</routes>
