<routes>
	<vehicle depart="0.1" departLane="0" departPos="69.71478221243528" departSpeed="0.036604663" id="36" type="passenger">
		<route edges="13269 13272"/>
	</vehicle>
	<vehicle depart="0.1" departLane="0" departPos="10.467303776365355" departSpeed="1.3457855" id="39" type="passenger">
		<route edges=":17_5 13387"/>
	</vehicle>
	<vehicle depart="0.1" departLane="0" departPos="56.363867412731565" departSpeed="1.6201823" id="310" type="passenger">
		<route edges="13269 13357"/>
	</vehicle>
	<vehicle depart="0.1" departLane="0" departPos="48.81344023748576" departSpeed="1.694008" id="311" type="passenger">
		<route edges="13269 13357"/>
	</vehicle>
	<vehicle depart="0.1" departLane="0" departPos="39.67263396948826" departSpeed="0.33216902" id="312" type="passenger">
		<route edges="13269 13357"/>
	</vehicle>
	<vehicle depart="0.1" departLane="0" departPos="12.245201905503444" departSpeed="14.444627" id="336" type="passenger">
		<route edges=":17_3 13357"/>
	</vehicle>
	<vehicle depart="0.1" departLane="0" departPos="46.95357384847409" departSpeed="11.857062" id="339" type="passenger">
		<route edges="13271 13268"/>
	</vehicle>
	<vehicle depart="0.1" departLane="0" departPos="11.112869396382912" departSpeed="1.6669223" id="30" type="truck">
		<route edges=":17_9 13387"/>
	</vehicle>
	<vehicle depart="0.1" departLane="0" departPos="62.40022449447132" departSpeed="0.0" id="31" type="truck">
		<route edges="13358 13272"/>
	</vehicle>
</routes>
