<routes>
	<vehicle depart="0.1" departLane="0" departPos="64.9182375462942" departSpeed="0.0" id="315" type="passenger">
		<route edges="13211 13507"/>
	</vehicle>
	<vehicle depart="0.1" departLane="0" departPos="57.41715391913041" departSpeed="0.0" id="316" type="passenger">
		<route edges="13211 13507"/>
	</vehicle>
	<vehicle depart="0.1" departLane="0" departPos="49.91580669600868" departSpeed="0.0" id="328" type="passenger">
		<route edges="13211 13507"/>
	</vehicle>
	<vehicle depart="0.1" departLane="0" departPos="42.41445878608884" departSpeed="0.0" id="332" type="passenger">
		<route edges="13211 13507"/>
	</vehicle>
	<vehicle depart="0.1" departLane="0" departPos="2.5" departSpeed="7.9364342" id="339" type="passenger">
		<route edges="13210"/>
	</vehicle>
	<vehicle depart="0.1" departLane="0" departPos="34.91136559696245" departSpeed="0.0" id="341" type="passenger">
		<route edges="13211 13507"/>
	</vehicle>
	<vehicle depart="0.1" departLane="0" departPos="27.44637992203322" departSpeed="2.2105846e-05" id="346" type="passenger">
		<route edges="13211 13507"/>
	</vehicle>
	<vehicle depart="0.1" departLane="0" departPos="19.97586561086457" departSpeed="0.00012793182" id="350" type="passenger">
		<route edges="13211 13507"/>
	</vehicle>
	<vehicle depart="0.1" departLane="0" departPos="12.478381367968911" departSpeed="0.00048074379" id="357" type="passenger">
		<route edges="13211 13507"/>
	</vehicle>
	<vehicle depart="0.1" departLane="0" departPos="23.122796968648906" departSpeed="2.1445981" id="34" type="motorcycle">
		<route edges=":39_3 13511"/>
	</vehicle>
</routes>
