<!-- generated on Wed Feb 10 12:30:27 2021 by Eclipse SUMO netconvert Version 1.8.0
<configuration xmlns:xsi="http://www.w3.org/2001/XMLSchema-instance" xsi:noNamespaceSchemaLocation="http://sumo.dlr.de/xsd/netconvertConfiguration.xsd">

    <input>
        <node-files value="./converted_scenarios/SUMO/DEU_Flensburg-87_1_I-1-1/DEU_Flensburg-87_1_I-1-1.nod.xml"/>
        <edge-files value="./converted_scenarios/SUMO/DEU_Flensburg-87_1_I-1-1/DEU_Flensburg-87_1_I-1-1.edg.xml"/>
        <connection-files value="./converted_scenarios/SUMO/DEU_Flensburg-87_1_I-1-1/DEU_Flensburg-87_1_I-1-1.con.xml"/>
        <tllogic-files value="./converted_scenarios/SUMO/DEU_Flensburg-87_1_I-1-1/DEU_Flensburg-87_1_I-1-1.tll.xml"/>
        <type-files value="/home/zen/commonroad-interactive-benchmarks/install/commonroad-map-tool/crmapconverter/sumo_map/templates/DEU.typ.xml"/>
    </input>

    <output>
        <output-file value="./converted_scenarios/SUMO/DEU_Flensburg-87_1_I-1-1/DEU_Flensburg-87_1_I-1-1.net.xml"/>
    </output>

    <processing>
        <geometry.remove.keep-edges.explicit value="true"/>
        <geometry.avoid-overlap value="true"/>
        <offset.disable-normalization value="true"/>
    </processing>

    <junctions>
        <no-turnarounds value="true"/>
        <junctions.internal-link-detail value="20"/>
    </junctions>

    <report>
        <aggregate-warnings value="5"/>
    </report>

    <random_number>
        <seed value="1234"/>
    </random_number>

</configuration>
--><net xmlns:xsi="http://www.w3.org/2001/XMLSchema-instance" version="1.6" junctionCornerDetail="5" junctionLinkDetail="20" limitTurnSpeed="5.50" xsi:noNamespaceSchemaLocation="http://sumo.dlr.de/xsd/net_file.xsd">

    <location netOffset="0.00,0.00" convBoundary="-3.52,171.51,127.52,363.32" origBoundary="-3.52,171.51,127.52,363.32" projParameter="!"/>

    <type id="highway.bridleway" priority="1" speed="2.78" allow="pedestrian" oneway="1" width="2.00"/>
    <type id="highway.bus_guideway" priority="1" speed="27.78" allow="bus" oneway="1"/>
    <type id="highway.cycleway" priority="1" speed="8.33" allow="bicycle" oneway="0" width="1.00"/>
    <type id="highway.footway" priority="1" speed="2.78" allow="pedestrian" oneway="1" width="2.00"/>
    <type id="highway.ford" priority="1" speed="2.78" allow="army" oneway="0"/>
    <type id="highway.living_street" priority="2" speed="2.78" disallow="tram rail_urban rail rail_electric rail_fast ship" oneway="0"/>
    <type id="highway.motorway" priority="14" speed="39.44" allow="private emergency authority army vip passenger hov taxi bus coach delivery truck trailer motorcycle evehicle custom1 custom2" oneway="1"/>
    <type id="highway.motorway_link" priority="9" speed="22.22" allow="private emergency authority army vip passenger hov taxi bus coach delivery truck trailer motorcycle evehicle custom1 custom2" oneway="1"/>
    <type id="highway.path" priority="1" speed="2.78" allow="pedestrian bicycle" oneway="0" width="2.00"/>
    <type id="highway.pedestrian" priority="1" speed="2.78" allow="pedestrian" oneway="1" width="2.00"/>
    <type id="highway.primary" priority="12" speed="27.78" disallow="pedestrian tram rail_urban rail rail_electric rail_fast ship" oneway="0"/>
    <type id="highway.primary_link" priority="7" speed="22.22" disallow="pedestrian tram rail_urban rail rail_electric rail_fast ship" oneway="0"/>
    <type id="highway.raceway" priority="15" speed="83.33" allow="vip" oneway="0"/>
    <type id="highway.residential" priority="3" speed="13.89" disallow="pedestrian tram rail_urban rail rail_electric rail_fast ship" oneway="0"/>
    <type id="highway.secondary" priority="11" speed="27.78" disallow="pedestrian tram rail_urban rail rail_electric rail_fast ship" oneway="0"/>
    <type id="highway.secondary_link" priority="6" speed="22.22" disallow="pedestrian tram rail_urban rail rail_electric rail_fast ship" oneway="0"/>
    <type id="highway.service" priority="1" speed="5.56" allow="pedestrian delivery bicycle" oneway="0"/>
    <type id="highway.stairs" priority="1" speed="1.39" allow="pedestrian" oneway="1" width="2.00"/>
    <type id="highway.step" priority="1" speed="1.39" allow="pedestrian" oneway="1" width="2.00"/>
    <type id="highway.steps" priority="1" speed="1.39" allow="pedestrian" oneway="1" width="2.00"/>
    <type id="highway.tertiary" priority="10" speed="22.22" disallow="pedestrian tram rail_urban rail rail_electric rail_fast ship" oneway="0"/>
    <type id="highway.tertiary_link" priority="5" speed="22.22" disallow="pedestrian tram rail_urban rail rail_electric rail_fast ship" oneway="0"/>
    <type id="highway.track" priority="1" speed="5.56" allow="pedestrian motorcycle moped bicycle" oneway="0"/>
    <type id="highway.trunk" priority="13" speed="27.78" disallow="pedestrian bicycle tram rail_urban rail rail_electric rail_fast ship" oneway="0"/>
    <type id="highway.trunk_link" priority="8" speed="22.22" disallow="pedestrian bicycle tram rail_urban rail rail_electric rail_fast ship" oneway="0"/>
    <type id="highway.unclassified" priority="4" speed="13.89" disallow="pedestrian tram rail_urban rail rail_electric rail_fast ship" oneway="0"/>
    <type id="highway.unsurfaced" priority="1" speed="8.33" disallow="tram rail_urban rail rail_electric rail_fast ship" oneway="0"/>
    <type id="railway.highspeed" priority="21" speed="69.44" allow="rail_fast" oneway="1"/>
    <type id="railway.light_rail" priority="19" speed="27.78" allow="rail_urban" oneway="1"/>
    <type id="railway.preserved" priority="16" speed="27.78" allow="rail" oneway="1"/>
    <type id="railway.rail" priority="20" speed="44.44" allow="rail" oneway="1"/>
    <type id="railway.subway" priority="18" speed="27.78" allow="rail_urban" oneway="1"/>
    <type id="railway.tram" priority="17" speed="13.89" allow="tram" oneway="1"/>

    <edge id=":23_0" function="internal">
        <lane id=":23_0_0" index="0" disallow="pedestrian tram rail_urban rail rail_electric rail_fast ship" speed="36.11" length="13.49" width="3.50" shape="95.72,299.43 92.10,291.75 89.83,287.29"/>
    </edge>
    <edge id=":23_1" function="internal">
        <lane id=":23_1_0" index="0" disallow="pedestrian tram rail_urban rail rail_electric rail_fast ship" speed="6.48" length="8.25" width="3.50" shape="99.06,290.19 98.92,290.34 98.34,291.30 97.98,292.37 97.85,293.48 97.99,295.16 98.63,297.32 98.92,298.00"/>
    </edge>
    <edge id=":23_2" function="internal">
        <lane id=":23_2_0" index="0" disallow="pedestrian tram rail_urban rail rail_electric rail_fast ship" speed="6.89" length="10.33" width="3.50" shape="98.76,289.65 96.73,290.31 94.98,290.53 93.81,290.44 92.68,290.11 91.67,289.52 90.80,288.72 89.83,287.29"/>
    </edge>
    <edge id=":23_3" function="internal">
        <lane id=":23_3_0" index="0" disallow="pedestrian tram rail_urban rail rail_electric rail_fast ship" speed="36.11" length="13.74" width="3.50" shape="92.92,285.64 95.24,290.20 98.92,298.00"/>
    </edge>
    <edge id=":24_0" function="internal">
        <lane id=":24_0_0" index="0" disallow="pedestrian tram rail_urban rail rail_electric rail_fast ship" speed="6.79" length="10.36" width="3.50" shape="57.51,235.94 56.56,234.89 55.49,233.96 54.70,233.44 53.83,233.06 52.91,232.86 51.97,232.86 51.05,233.09 50.20,233.49 49.06,234.34 48.74,234.64"/>
    </edge>
    <edge id=":24_1" function="internal">
        <lane id=":24_1_0" index="0" disallow="pedestrian tram rail_urban rail rail_electric rail_fast ship" speed="36.11" length="17.01" width="3.50" shape="57.51,235.94 51.99,229.41 46.87,223.88 46.23,223.22"/>
    </edge>
    <edge id=":24_2" function="internal">
        <lane id=":24_2_0" index="0" disallow="pedestrian tram rail_urban rail rail_electric rail_fast ship" speed="9.70" length="18.11" width="3.50" shape="57.51,235.94 55.97,233.74 55.07,231.94 54.46,230.02 54.23,228.03 54.42,226.02 54.99,224.09 55.88,222.29 57.01,220.62 57.86,219.58"/>
    </edge>
    <edge id=":24_3" function="internal">
        <lane id=":24_3_0" index="0" disallow="pedestrian tram rail_urban rail rail_electric rail_fast ship" speed="8.37" length="13.24" width="3.50" shape="60.53,221.85 59.84,222.68 58.98,223.95 58.33,225.26 57.92,226.62 57.79,227.99 57.95,229.38 58.38,230.74 59.04,232.06 60.23,233.75"/>
    </edge>
    <edge id=":24_4" function="internal">
        <lane id=":24_4_0" index="0" disallow="pedestrian tram rail_urban rail rail_electric rail_fast ship" speed="36.11" length="17.40" width="3.50" shape="60.53,221.85 54.31,228.79 48.74,234.64"/>
    </edge>
    <edge id=":24_5" function="internal">
        <lane id=":24_5_0" index="0" disallow="pedestrian tram rail_urban rail rail_electric rail_fast ship" speed="8.38" length="16.58" width="3.50" shape="60.53,221.85 59.57,222.86 58.07,224.19 56.33,225.30 54.94,225.89 53.46,226.20 51.90,226.21 50.39,225.90 49.01,225.32 47.76,224.54 46.23,223.22"/>
    </edge>
    <edge id=":24_6" function="internal">
        <lane id=":24_6_0" index="0" disallow="pedestrian tram rail_urban rail rail_electric rail_fast ship" speed="6.86" length="10.71" width="3.50" shape="48.70,220.75 49.75,221.64 50.54,222.13 51.41,222.47 52.33,222.64 53.26,222.59 54.16,222.36 55.02,221.98 56.18,221.20 57.22,220.26 57.86,219.58"/>
    </edge>
    <edge id=":24_7" function="internal">
        <lane id=":24_7_0" index="0" disallow="pedestrian tram rail_urban rail rail_electric rail_fast ship" speed="36.11" length="17.38" width="3.50" shape="48.70,220.75 49.40,221.46 54.61,227.08 60.23,233.75"/>
    </edge>
    <edge id=":24_8" function="internal">
        <lane id=":24_8_0" index="0" disallow="pedestrian tram rail_urban rail rail_electric rail_fast ship" speed="8.33" length="15.81" width="3.50" shape="48.70,220.75 49.60,221.75 50.78,223.40 51.44,224.71 51.89,226.14 52.07,227.67 51.93,229.21 51.49,230.66 50.85,231.96 50.05,233.15 48.74,234.64"/>
    </edge>
    <edge id=":24_9" function="internal">
        <lane id=":24_9_0" index="0" disallow="pedestrian tram rail_urban rail rail_electric rail_fast ship" speed="6.78" length="10.09" width="3.50" shape="46.36,232.05 47.18,231.12 47.71,230.34 48.12,229.50 48.39,228.61 48.47,227.68 48.36,226.75 48.07,225.86 47.65,225.03 46.83,223.89 46.23,223.22"/>
    </edge>
    <edge id=":24_10" function="internal">
        <lane id=":24_10_0" index="0" disallow="pedestrian tram rail_urban rail rail_electric rail_fast ship" speed="36.11" length="16.97" width="3.50" shape="46.36,232.06 51.76,226.39 57.86,219.58"/>
    </edge>
    <edge id=":24_11" function="internal">
        <lane id=":24_11_0" index="0" disallow="pedestrian tram rail_urban rail rail_electric rail_fast ship" speed="8.33" length="16.19" width="3.50" shape="46.37,232.06 46.81,231.66 48.47,230.42 49.86,229.72 51.38,229.29 53.02,229.22 54.58,229.51 56.02,230.09 57.29,230.89 58.86,232.24 60.23,233.75"/>
    </edge>

    <edge id="10" from="19" to="23" priority="3" type="highway.residential" spreadType="center" length="70.01" shape="124.32,363.32 94.07,292.43">
        <lane id="10_0" index="0" disallow="pedestrian tram rail_urban rail rail_electric rail_fast ship" speed="36.11" length="70.01" width="3.50" customShape="1" shape="124.32,363.32 115.49,343.80 95.72,299.42"/>
    </edge>
    <edge id="114" from="17" to="24" priority="3" type="highway.residential" spreadType="center" length="70.02" shape="-1.05,171.51 54.51,226.53">
        <lane id="114_0" index="0" disallow="pedestrian tram rail_urban rail rail_electric rail_fast ship" speed="36.11" length="70.02" width="3.50" customShape="1" shape="-1.05,171.51 12.18,184.03 48.71,220.76"/>
    </edge>
    <edge id="115" from="24" to="10" priority="3" type="highway.residential" spreadType="center" length="70.00" shape="52.05,229.01 -3.52,173.99">
        <lane id="115_0" index="0" disallow="pedestrian tram rail_urban rail rail_electric rail_fast ship" speed="36.11" length="70.00" width="3.50" customShape="1" shape="46.23,223.22 9.75,186.54 -3.52,173.99"/>
    </edge>
    <edge id="12" from="24" to="23" priority="3" type="highway.residential" spreadType="center" length="61.46" shape="54.69,226.74 97.15,290.82">
        <lane id="12_0" index="0" disallow="pedestrian tram rail_urban rail rail_electric rail_fast ship" speed="36.11" length="61.46" width="3.50" customShape="1" shape="60.23,233.75 64.69,239.34 69.30,245.56 74.77,253.65 80.18,262.37 85.31,271.25 92.92,285.65"/>
    </edge>
    <edge id="13" from="23" to="24" priority="3" type="highway.residential" spreadType="center" length="60.82" shape="94.24,292.75 51.77,228.67">
        <lane id="13_0" index="0" disallow="pedestrian tram rail_urban rail rail_electric rail_fast ship" speed="36.11" length="60.82" width="3.50" customShape="1" shape="89.83,287.29 82.25,272.94 77.18,264.17 71.83,255.55 66.45,247.58 61.92,241.49 57.49,235.93"/>
    </edge>
    <edge id="204" from="24" to="12" priority="3" type="highway.residential" spreadType="center" length="30.36" shape="51.76,226.82 73.96,194.21">
        <lane id="204_0" index="0" disallow="pedestrian tram rail_urban rail rail_electric rail_fast ship" speed="36.11" length="30.36" width="3.50" customShape="1" shape="57.86,219.58 63.10,213.41 67.69,207.32 70.20,203.58 71.83,200.57 72.90,197.91 73.96,194.21"/>
    </edge>
    <edge id="205" from="13" to="24" priority="3" type="highway.residential" spreadType="center" length="32.01" shape="77.35,195.07 54.66,228.78">
        <lane id="205_0" index="0" disallow="pedestrian tram rail_urban rail rail_electric rail_fast ship" speed="36.11" length="32.01" width="3.50" customShape="1" shape="77.35,195.07 76.20,199.06 74.98,202.07 73.19,205.40 70.53,209.37 65.83,215.60 60.49,221.89"/>
    </edge>
    <edge id="62" from="22" to="23" priority="3" type="highway.residential" spreadType="center" length="72.57">
        <lane id="62_0" index="0" disallow="pedestrian tram rail_urban rail rail_electric rail_fast ship" speed="36.11" length="72.57" width="3.49" customShape="1" shape="105.46,229.66 108.45,236.59 114.28,248.97 116.36,254.15 117.72,258.50 118.58,262.46 119.02,265.98 119.09,268.56 118.84,271.11 118.22,273.60 117.26,275.98 116.23,277.76 114.91,279.28 112.58,281.21 108.47,284.19 104.17,286.84 98.84,289.81"/>
    </edge>
    <edge id="73" from="20" to="24" priority="3" type="highway.residential" spreadType="center" length="54.31" shape="-2.61,254.80 52.49,226.17">
        <lane id="73_0" index="0" disallow="pedestrian tram rail_urban rail rail_electric rail_fast ship" speed="36.11" length="54.31" width="3.50" customShape="1" shape="-2.61,254.80 6.85,251.20 20.86,245.70 34.69,239.76 38.65,237.87 41.50,236.16 43.78,234.45 46.37,232.06"/>
    </edge>
    <edge id="74" from="24" to="16" priority="3" type="highway.residential" spreadType="center" length="55.58" shape="54.10,229.27 -1.31,258.05">
        <lane id="74_0" index="0" disallow="pedestrian tram rail_urban rail rail_electric rail_fast ship" speed="36.11" length="55.58" width="3.50" customShape="1" shape="48.74,234.64 46.01,237.14 43.45,239.07 40.29,240.96 36.11,242.96 22.18,248.94 8.10,254.46 -1.31,258.05"/>
    </edge>
    <edge id="9" from="23" to="2" priority="3" type="highway.residential" spreadType="center" length="70.00" shape="97.29,291.06 127.52,361.89">
        <lane id="9_0" index="0" disallow="pedestrian tram rail_urban rail rail_electric rail_fast ship" speed="36.11" length="70.00" width="3.50" customShape="1" shape="98.92,298.00 118.69,342.37 127.52,361.89"/>
    </edge>

    <junction id="10" type="dead_end" x="-3.52" y="173.99" incLanes="115_0" intLanes="" shape="-4.73,175.26 -2.32,172.72" rightOfWay="edgePriority"/>
    <junction id="12" type="dead_end" x="73.96" y="194.21" incLanes="204_0" intLanes="" shape="72.28,193.73 75.64,194.69" rightOfWay="edgePriority"/>
    <junction id="13" type="dead_end" x="77.35" y="195.07" incLanes="" intLanes="" shape="75.67,194.59 79.03,195.55" rightOfWay="edgePriority"/>
    <junction id="16" type="dead_end" x="-1.31" y="258.05" incLanes="74_0" intLanes="" shape="-0.69,259.68 -1.93,256.41" rightOfWay="edgePriority"/>
    <junction id="17" type="dead_end" x="-1.05" y="171.51" incLanes="" intLanes="" shape="-2.25,172.78 0.15,170.24" rightOfWay="edgePriority"/>
    <junction id="19" type="dead_end" x="124.32" y="363.32" incLanes="" intLanes="" shape="125.92,362.60 122.73,364.04" rightOfWay="edgePriority"/>
    <junction id="2" type="dead_end" x="127.52" y="361.89" incLanes="9_0" intLanes="" shape="129.11,361.17 125.92,362.61" rightOfWay="edgePriority"/>
    <junction id="20" type="dead_end" x="-2.61" y="254.80" incLanes="" intLanes="" shape="-1.98,256.43 -3.23,253.16" rightOfWay="edgePriority"/>
    <junction id="22" type="dead_end" x="105.46" y="229.66" incLanes="" intLanes="" shape="103.86,230.35 107.07,228.97" rightOfWay="edgePriority"/>
    <junction id="23" type="priority" x="95.69" y="291.78" incLanes="10_0 62_0 12_0" intLanes=":23_0_0 :23_1_0 :23_2_0 :23_3_0" shape="94.12,300.13 100.51,297.28 99.41,294.34 99.17,293.23 99.13,292.36 99.31,291.73 99.69,291.33 97.99,288.28 97.02,288.22 96.46,287.79 95.85,287.07 95.18,286.09 94.47,284.83 88.29,288.10">
        <request index="0" response="0000" foes="0100" cont="0"/>
        <request index="1" response="1000" foes="1000" cont="0"/>
        <request index="2" response="1001" foes="1001" cont="0"/>
        <request index="3" response="0000" foes="0110" cont="0"/>
    </junction>
    <junction id="24" type="priority" x="53.25" y="227.74" incLanes="13_0 205_0 114_0 73_0" intLanes=":24_0_0 :24_1_0 :24_2_0 :24_3_0 :24_4_0 :24_5_0 :24_6_0 :24_7_0 :24_8_0 :24_9_0 :24_10_0 :24_11_0" shape="56.12,237.02 61.59,232.65 59.91,229.43 59.74,227.82 60.00,226.21 60.71,224.59 61.86,222.98 56.53,218.45 54.23,220.41 53.12,220.79 52.04,220.77 50.98,220.35 49.95,219.52 44.99,224.46 46.51,226.67 46.72,227.73 46.57,228.77 46.06,229.79 45.18,230.78 49.92,235.92 51.98,234.79 53.01,234.78 54.04,235.15 55.08,235.90">
        <request index="0" response="000000000000" foes="000100010000" cont="0"/>
        <request index="1" response="000000000000" foes="111100110000" cont="0"/>
        <request index="2" response="000011000000" foes="110011110000" cont="0"/>
        <request index="3" response="000010000000" foes="100010000000" cont="0"/>
        <request index="4" response="000110000111" foes="100110000111" cont="0"/>
        <request index="5" response="011110000110" foes="011110000110" cont="0"/>
        <request index="6" response="000000000000" foes="010000000100" cont="0"/>
        <request index="7" response="000000000000" foes="110000111100" cont="0"/>
        <request index="8" response="000000000011" foes="110000110011" cont="0"/>
        <request index="9" response="000000000010" foes="000000100010" cont="0"/>
        <request index="10" response="000111000110" foes="000111100110" cont="0"/>
        <request index="11" response="000110011110" foes="000110011110" cont="0"/>
    </junction>

    <connection from="10" to="13" fromLane="0" toLane="0" contPos="-4.00" shape="95.72,299.43 92.10,291.75 89.83,287.29" via=":23_0_0" dir="s" state="M"/>
    <connection from="114" to="204" fromLane="0" toLane="0" contPos="-4.00" shape="48.70,220.75 49.75,221.64 50.54,222.13 51.41,222.47 52.33,222.64 53.26,222.59 54.16,222.36 55.02,221.98 56.18,221.20 57.22,220.26 57.86,219.58" via=":24_6_0" dir="r" state="M"/>
    <connection from="114" to="12" fromLane="0" toLane="0" contPos="-4.00" shape="48.70,220.75 49.40,221.46 54.61,227.08 60.23,233.75" via=":24_7_0" dir="s" state="M"/>
    <connection from="114" to="74" fromLane="0" toLane="0" contPos="-4.00" shape="48.70,220.75 49.60,221.75 50.78,223.40 51.44,224.71 51.89,226.14 52.07,227.67 51.93,229.21 51.49,230.66 50.85,231.96 50.05,233.15 48.74,234.64" via=":24_8_0" dir="l" state="m"/>
    <connection from="12" to="9" fromLane="0" toLane="0" contPos="-4.00" shape="92.92,285.64 95.24,290.20 98.92,298.00" via=":23_3_0" dir="s" state="M"/>
    <connection from="13" to="74" fromLane="0" toLane="0" contPos="-4.00" shape="57.51,235.94 56.56,234.89 55.49,233.96 54.70,233.44 53.83,233.06 52.91,232.86 51.97,232.86 51.05,233.09 50.20,233.49 49.06,234.34 48.74,234.64" via=":24_0_0" dir="r" state="M"/>
    <connection from="13" to="115" fromLane="0" toLane="0" contPos="-4.00" shape="57.51,235.94 51.99,229.41 46.87,223.88 46.23,223.22" via=":24_1_0" dir="s" state="M"/>
    <connection from="13" to="204" fromLane="0" toLane="0" contPos="-4.00" shape="57.51,235.94 55.97,233.74 55.07,231.94 54.46,230.02 54.23,228.03 54.42,226.02 54.99,224.09 55.88,222.29 57.01,220.62 57.86,219.58" via=":24_2_0" dir="l" state="m"/>
    <connection from="205" to="12" fromLane="0" toLane="0" contPos="-4.00" shape="60.49,221.89 59.84,222.68 58.98,223.95 58.33,225.26 57.92,226.62 57.79,227.99 57.95,229.38 58.38,230.74 59.04,232.06 60.23,233.75" via=":24_3_0" dir="r" state="m"/>
    <connection from="205" to="74" fromLane="0" toLane="0" contPos="-4.00" shape="60.49,221.89 54.31,228.79 48.74,234.64" via=":24_4_0" dir="s" state="m"/>
    <connection from="205" to="115" fromLane="0" toLane="0" contPos="-4.00" shape="60.49,221.89 59.57,222.86 58.07,224.19 56.33,225.30 54.94,225.89 53.46,226.20 51.90,226.21 50.39,225.90 49.01,225.32 47.76,224.54 46.23,223.22" via=":24_5_0" dir="l" state="m"/>
    <connection from="62" to="9" fromLane="0" toLane="0" contPos="-4.00" shape="101.08,288.56 99.69,289.52 98.92,290.34 98.34,291.30 97.98,292.37 97.85,293.48 97.99,295.16 98.63,297.32 98.92,298.00" via=":23_1_0" dir="s" state="m"/>
    <connection from="62" to="13" fromLane="0" toLane="0" contPos="-4.00" shape="101.08,288.56 98.96,289.59 96.73,290.31 94.98,290.53 93.81,290.44 92.68,290.11 91.67,289.52 90.80,288.72 89.83,287.29" via=":23_2_0" dir="l" state="m"/>
    <connection from="73" to="115" fromLane="0" toLane="0" contPos="-4.00" shape="46.27,232.16 47.18,231.12 47.71,230.34 48.12,229.50 48.39,228.61 48.47,227.68 48.36,226.75 48.07,225.86 47.65,225.03 46.83,223.89 46.23,223.22" via=":24_9_0" dir="r" state="m"/>
    <connection from="73" to="204" fromLane="0" toLane="0" contPos="-4.00" shape="46.27,232.16 51.76,226.39 57.86,219.58" via=":24_10_0" dir="s" state="m"/>
    <connection from="73" to="12" fromLane="0" toLane="0" contPos="-4.00" shape="46.27,232.16 46.81,231.66 48.47,230.42 49.86,229.72 51.38,229.29 53.02,229.22 54.58,229.51 56.02,230.09 57.29,230.89 58.86,232.24 60.23,233.75" via=":24_11_0" dir="l" state="m"/>

    <connection from=":23_0" to="13" fromLane="0" toLane="0" dir="s" state="M"/>
    <connection from=":23_1" to="9" fromLane="0" toLane="0" dir="s" state="M"/>
    <connection from=":23_2" to="13" fromLane="0" toLane="0" dir="l" state="M"/>
    <connection from=":23_3" to="9" fromLane="0" toLane="0" dir="s" state="M"/>
    <connection from=":24_0" to="74" fromLane="0" toLane="0" dir="r" state="M"/>
    <connection from=":24_1" to="115" fromLane="0" toLane="0" dir="s" state="M"/>
    <connection from=":24_2" to="204" fromLane="0" toLane="0" dir="l" state="M"/>
    <connection from=":24_3" to="12" fromLane="0" toLane="0" dir="r" state="M"/>
    <connection from=":24_4" to="74" fromLane="0" toLane="0" dir="s" state="M"/>
    <connection from=":24_5" to="115" fromLane="0" toLane="0" dir="l" state="M"/>
    <connection from=":24_6" to="204" fromLane="0" toLane="0" dir="r" state="M"/>
    <connection from=":24_7" to="12" fromLane="0" toLane="0" dir="s" state="M"/>
    <connection from=":24_8" to="74" fromLane="0" toLane="0" dir="l" state="M"/>
    <connection from=":24_9" to="115" fromLane="0" toLane="0" dir="r" state="M"/>
    <connection from=":24_10" to="204" fromLane="0" toLane="0" dir="s" state="M"/>
    <connection from=":24_11" to="12" fromLane="0" toLane="0" dir="l" state="M"/>

</net>