<!-- generated on 2020-12-18 15:54:14.506810 by ipykernel_launcher.py v1_2_0+5214-53edc58fcd
-->
<edges>
	<edge from="1" function="normal" id="23" length="183.5269650753844" numLanes="6" priority="1" speed="36.11111111111111" spreadType="center" to="2">
		<lane allow="moped bicycle pedestrian custom1 trailer evehicle rail_urban ship private vip custom2 authority delivery rail_electric taxi tram army hov coach motorcycle passenger rail emergency" index="0" length="183.5269650753844" shape="-42.51035,36.7161 -41.5139,35.83935 -40.791,35.192899999999995 -38.03885,32.7945 -37.31595,32.14805 -34.744249999999994,29.9221 -34.0214,29.27565 -31.30455,26.9441 -30.58165,26.2977 -27.73775,23.7867 -27.014850000000003,23.14025 -24.355800000000002,20.78725 -23.6329,20.1408 -20.81985,17.719099999999997 -20.09695,17.0727 -17.46665,14.770700000000001 -16.7438,14.12425 -14.035900000000002,11.755700000000001 -13.39135,11.178799999999999 -13.3095,11.10645 -10.48435,8.72485 -9.76075,8.0793 -7.13995,5.7225 -6.4163,5.077 -3.7454,2.7639500000000004 -3.0218,2.1184 -0.22895000000000004,-0.3295 0.49465000000000003,-0.9750500000000001 3.0049,-3.13805 3.7285500000000003,-3.7836 6.503550000000001,-6.20895 7.22715,-6.8545 9.92375,-9.11605 10.647400000000001,-9.76165 13.389,-12.216149999999999 14.11265,-12.861699999999999 14.77085,-13.43275 16.84675,-15.23465 17.57025,-15.88035 20.22205,-18.1657 20.945549999999997,-18.81145 23.640349999999998,-21.1328 24.363799999999998,-21.7785 28.86795,-25.684600000000003 29.591450000000002,-26.33035 32.46355,-28.7872 33.18705,-29.4329 36.06685,-31.91205 36.790350000000004,-32.55775 39.6148,-35.03415 40.338300000000004,-35.67985 43.00865,-37.9935 43.73215,-38.6392 46.31445,-40.862449999999995 46.5366,-41.05825 47.243700000000004,-41.72175 47.73975,-42.18085 50.049800000000005,-44.224199999999996 50.76965,-44.8742 53.6336,-47.42915 54.353449999999995,-48.0791 57.1989,-50.60645 57.91875,-51.2564 60.671350000000004,-53.67575 61.3912,-54.32575 63.2764,-55.9554 64.1216,-56.68865 65.83500000000001,-58.229600000000005 72.0673,-63.521950000000004 74.65555,-65.72905 75.38300000000001,-66.36995 78.20505,-68.80770000000001 78.9324,-69.4486 79.58025,-70.00370000000001 81.6258,-71.79915 82.34565,-72.4491 85.0104,-74.79990000000001 85.73035,-75.44975 88.5153,-77.899 89.23519999999999,-78.5489 92.03659999999999,-80.98335 92.75655,-81.63325 95.5856,-84.1497" speed="36.11111111111111" width="3.6814288122955725"/>
		<lane allow="moped bicycle pedestrian custom1 trailer evehicle rail_urban ship private vip custom2 authority delivery rail_electric taxi tram army hov coach motorcycle passenger rail emergency" index="1" length="183.5269650753844" shape="-40.13295,39.5379 -35.6564,35.687 -34.98175,35.0968 -34.8836,35.01335 -33.9756,34.24035 -33.9109,34.180400000000006 -32.242599999999996,32.69085 -31.52975,32.03325 -31.01325,31.579250000000002 -28.8637,29.7453 -28.20865,29.16305 -28.15685,29.1177 -25.324550000000002,26.63095 -24.634149999999998,26.0177 -24.5845,25.9743 -22.9728,24.5559 -21.864600000000003,23.5438 -21.15165,22.886200000000002 -19.99825,21.8647 -18.40265,20.50535 -17.75845,19.93535 -17.688899999999997,19.875149999999998 -15.0601,17.5968 -14.3916,17.00575 -14.3202,16.944 -11.998899999999999,14.9332 -11.97785,14.9148 -11.5867,14.574200000000001 -10.85625,13.9238 -8.918,12.293800000000001 -8.0259,11.53905 -7.3586,10.94275 -4.7629,8.6051 -4.7132000000000005,8.56115 -4.01845,7.939299999999999 -3.94855,7.8787 -1.29175,5.5725 -1.1450500000000001,5.44195 -0.6389,4.9902999999999995 -0.58185,4.94035 1.9136000000000002,2.75575 2.2397,2.4664 2.9595,1.8164 5.456200000000001,-0.36139999999999994 6.1479,-0.98605 6.18995,-1.0231000000000001 8.9362,-3.4534499999999997 9.655999999999999,-4.1034500000000005 10.60605,-4.907 12.330400000000001,-6.3523499999999995 12.9912,-6.94085 13.450700000000001,-7.35055 15.695699999999999,-9.3416 16.430799999999998,-9.99095 16.514049999999997,-10.0624 19.253149999999998,-12.41625 19.90385,-12.99035 19.9967,-13.06965 21.4224,-14.28755 22.66755,-15.3585 23.324550000000002,-15.9436 23.40545,-16.0132 24.4164,-16.8841 26.0967,-18.34655 26.8171,-18.9959 31.301650000000002,-22.9237 32.02205,-23.57305 32.103,-23.6419 34.880399999999995,-26.0131 34.99325,-26.1128 35.442099999999996,-26.50595 35.5535,-26.5994 38.4454,-29.0218 38.77455,-29.303449999999998 38.86365,-29.382849999999998 39.17775,-29.66035 39.2464,-29.71965 41.91235,-32.05305 42.100449999999995,-32.22005 42.8202,-32.8701 45.476600000000005,-35.19915 46.196349999999995,-35.849199999999996 47.3264,-36.8329 49.05315,-38.31635 49.71265,-38.90375 49.7697,-38.953599999999994 50.292950000000005,-39.411249999999995 52.55865,-41.412800000000004 53.24765,-42.03405 53.2793,-42.062200000000004 56.1446,-44.615300000000005 56.83355,-45.236450000000005 56.87105,-45.26975 59.34805,-47.46725 59.6767,-47.755250000000004 60.3568,-48.36065 60.42485,-48.4197 62.34505,-50.0859 63.187799999999996,-50.814350000000005 63.8403,-51.3938 63.937,-51.4757 66.72710000000001,-53.84855 67.38005,-54.428399999999996 67.42830000000001,-54.47055 70.0096,-56.74265 70.14505,-56.86235 70.84540000000001,-57.485749999999996 70.94375,-57.56875 73.1134,-59.41345 73.81795,-60.016999999999996 74.49435,-60.6237 74.56075,-60.68115 77.1083,-62.894400000000005 77.78514999999999,-63.5015 77.8337,-63.54415 80.6308,-66.0048 80.7851,-66.1429 81.28139999999999,-66.58585 81.34945,-66.6448 83.85495,-68.81649999999999 84.09675,-69.0287 84.78524999999999,-69.64935 84.83155,-69.6901 87.4834,-72.02715 88.2038,-72.67654999999999 90.99045,-75.12389999999999 91.7108,-75.7733 91.9944,-76.01865000000001 94.51175,-78.17715 94.88374999999999,-78.50775 95.17394999999999,-78.76695000000001 95.22395,-78.8107 98.09765,-81.33365 98.09925,-81.33505" speed="36.11111111111111" width="3.4488983313516317"/>
		<lane allow="moped bicycle pedestrian custom1 trailer evehicle rail_urban ship private vip custom2 authority delivery rail_electric taxi tram army hov coach motorcycle passenger rail emergency" index="2" length="183.5269650753844" shape="-37.86425,42.23065 -35.86815,40.462199999999996 -31.68325,36.9077 -28.83845,34.3638 -28.74105,34.279650000000004 -27.7356,33.4101 -24.785249999999998,30.7588 -20.6772,27.23565 -17.81775,24.6914 -17.7058,24.59555 -16.59215,23.6407 -16.53305,23.586 -13.6354,20.9955 -9.669699999999999,17.5258 -6.69585,14.907499999999999 -5.572850000000001,13.9156 -2.59475,11.31815 1.22,7.98835 4.21575,5.3822 5.32325,4.40545 8.29315,1.7876500000000002 12.81905,-2.21565 12.84955,-2.2422 15.831050000000001,-4.8434 16.42365,-5.35565 19.4253,-7.94205 23.7098,-11.6277 26.69825,-14.2211 34.345200000000006,-20.937649999999998 34.37805,-20.96615 37.37285,-23.5655 38.91245,-24.8653 41.225049999999996,-26.8231 41.894999999999996,-27.405450000000002 44.21865,-29.4572 49.5745,-34.252449999999996 49.61565,-34.28855 52.546,-36.83584999999999 52.560900000000004,-36.8491 60.41395,-43.848299999999995 61.57285,-44.86845 61.602850000000004,-44.8945 63.4127,-46.46815 64.52485,-47.41505 72.07830000000001,-53.824299999999994 72.12595,-53.8655 72.4119,-54.112700000000004 75.1136,-56.4612 75.4387,-56.7529 82.7454,-63.3346 83.07894999999999,-63.6267 83.09620000000001,-63.64165 85.74334999999999,-65.9429 86.1005,-66.25765 93.90559999999999,-73.21594999999999 94.15585,-73.43635 94.1851,-73.4618 96.90905000000001,-75.82995 97.13465,-76.02395 100.36410000000001,-78.799" speed="36.11111111111111" width="3.216879682238675"/>
		<lane allow="moped bicycle pedestrian custom1 trailer evehicle rail_urban ship private truck vip custom2 authority delivery rail_electric taxi tram army hov coach motorcycle passenger rail emergency" index="3" length="183.5269650753844" shape="-35.705349999999996,44.7931 -33.7812,43.0555 -33.6904,42.97685 -30.6269,40.32055 -27.67385,37.6799 -25.631950000000003,35.95715 -22.76915,33.43915 -22.63705,33.32825 -19.501350000000002,30.689799999999998 -16.54115,28.055149999999998 -14.37655,26.19475 -11.52,23.6222 -11.449,23.559800000000003 -8.26915,20.7579 -5.3411,18.08785 -3.4578499999999996,16.4362 -3.4208499999999997,16.40415 -0.43065000000000003,13.81485 2.7901,11.0244 2.8013000000000003,11.014600000000002 5.7918,8.4131 7.56405,6.8506 10.53725,4.2317 13.7326,1.40725 16.71855,-1.1975 18.6012,-2.8632999999999997 21.57315,-5.48355 24.97235,-8.4752 27.965,-11.07225 36.03305,-18.03125 36.045500000000004,-18.042099999999998 39.036150000000006,-20.637349999999998 41.00725,-22.33345 44.0044,-24.91655 47.30385,-27.804000000000002 47.3437,-27.839399999999998 50.29445,-30.4439 50.3254,-30.4715 51.806799999999996,-31.791399999999996 54.7854,-34.40495 58.30495,-37.532650000000004 61.25475,-40.1297 61.291399999999996,-40.162549999999996 62.635400000000004,-41.36515 65.60454999999999,-43.989450000000005 69.09344999999999,-47.00685 72.1106,-49.57445 74.25919999999999,-51.3992 77.24744999999999,-53.991 80.79325,-57.1545 83.74855,-59.797799999999995 84.84440000000001,-60.77715 84.91784999999999,-60.840900000000005 87.9074,-63.43639999999999 91.6387,-66.7159 94.6166,-69.33875 94.64359999999999,-69.36275 96.14235,-70.693 99.12275,-73.30435 102.58955,-76.30709999999999" speed="36.11111111111111" width="3.0495992130114455"/>
		<lane allow="moped bicycle pedestrian custom1 trailer evehicle rail_urban ship private vip custom2 authority delivery rail_electric taxi tram army hov coach motorcycle passenger rail emergency" index="4" length="183.5269650753844" shape="-33.55345,47.34725 -28.415399999999998,42.9358 -28.34225,42.8685 -25.55825,40.2724 -17.308950000000003,33.2238 -17.1881,33.1135 -14.37415,30.4914 -14.2442,30.37565 -6.0935500000000005,23.377299999999998 -5.97655,23.27055 -3.2376500000000004,20.7165 4.7322999999999995,13.7997 5.01385,13.55595 7.71915,11.2043 8.00705,10.9534 15.788,4.083 15.91205,3.97355 15.9454,3.94455 18.822200000000002,1.4433500000000001 18.9512,1.32965 27.05665,-5.90625 27.0885,-5.934699999999999 27.1388,-5.9785 30.06895,-8.52605 30.1303,-8.5794 38.2002,-15.5573 38.3378,-15.677 41.1896,-18.15605 41.33965,-18.2853 49.46,-25.27825 49.5619,-25.366149999999998 52.4402,-27.8682 52.5653,-27.9783 60.5327,-35.0466 63.5096,-37.63445 71.2091,-44.466350000000006 71.24385000000001,-44.49675 71.45425,-44.68075 74.2265,-47.090599999999995 74.45054999999999,-47.284949999999995 82.83305,-54.478849999999994 82.85679999999999,-54.4995 83.10345000000001,-54.71315 85.84285,-57.0945 86.119,-57.33995 93.75675,-64.10145 93.90084999999999,-64.2265 96.7449,-66.69874999999999 96.8913,-66.82605000000001 104.83840000000001,-73.78895" speed="36.11111111111111" width="3.2654832184532823"/>
		<lane allow="moped bicycle pedestrian custom1 trailer evehicle rail_urban ship private vip custom2 authority delivery rail_electric taxi tram army hov coach motorcycle passenger rail emergency" index="5" length="183.5269650753844" shape="-31.324650000000002,49.99265 -26.120350000000002,45.60795 -25.888849999999998,45.405699999999996 -25.76295,45.2886 -23.15165,42.85925 -22.81595,42.5565 -14.919149999999998,35.6212 -14.664,35.39135 -14.588650000000001,35.32115 -11.9792,32.889849999999996 -11.619399999999999,32.57245 -3.8523500000000004,25.9879 -3.61735,25.78155 -3.49895,25.671300000000002 -0.8878999999999999,23.24165 -0.5475,22.935850000000002 6.9709,16.37885 7.359299999999999,16.04065 9.95895,13.780850000000001 10.3399,13.4489 18.11235,6.65965 18.4996,6.32225 21.09925,4.06235 21.4394,3.7631 21.471600000000002,3.73445 29.379399999999997,-3.31285 29.752000000000002,-3.64065 32.3517,-5.90055 32.7393,-6.2377 40.59755,-13.0795 40.9872,-13.41845 43.58685,-15.678349999999998 43.978899999999996,-16.01885 51.6794,-22.701549999999997 52.06925,-23.04015 54.671099999999996,-25.30185 55.017250000000004,-25.606 55.04565,-25.63125 62.789500000000004,-32.5119 63.1643,-32.84115 65.76395,-35.10105 66.13875,-35.4281 66.14895,-35.43705 73.7298,-42.07895 74.1148,-42.414950000000005 76.7145,-44.67475 77.12095,-45.024249999999995 85.1333,-51.84325 85.5121,-52.1689 85.5395,-52.192750000000004 88.13929999999999,-54.45245 88.44805,-54.72585 88.50005,-54.772949999999994 96.0038,-61.5649 96.36525,-61.8851 98.9649,-64.14495 99.3557,-64.48465 107.12004999999999,-71.23405" speed="36.11111111111111" width="3.4791584298505267"/>
	</edge>
	<edge from="2" function="normal" id="24" length="12.196778632917859" numLanes="5" priority="1" speed="36.11111111111111" spreadType="center" to="3">
		<lane allow="moped bicycle pedestrian custom1 trailer evehicle rail_urban ship private truck vip custom2 authority delivery rail_electric taxi tram army hov coach motorcycle passenger bus rail emergency" index="0" length="12.196778632917859" shape="98.09925,-81.33505 102.81175,-85.44915 105.79650000000001,-88.0546 105.8083,-88.06495000000001 107.28444999999999,-89.3596" speed="36.11111111111111" width="3.507742570372002"/>
		<lane allow="moped bicycle pedestrian custom1 trailer evehicle rail_urban ship private vip custom2 authority delivery rail_electric taxi tram army hov coach motorcycle passenger rail emergency" index="1" length="12.196778632917859" shape="100.36410000000001,-78.799 105.0461,-82.82295 105.161,-82.92155 105.18995,-82.94669999999999 108.08099999999999,-85.4596 108.1625,-85.5308 109.5935,-86.78395" speed="36.11111111111111" width="3.2925795176426647"/>
		<lane allow="moped bicycle pedestrian custom1 trailer evehicle rail_urban ship private truck vip custom2 authority delivery rail_electric taxi tram army hov coach motorcycle passenger rail emergency" index="2" length="12.196778632917859" shape="102.58955,-76.30709999999999 102.8922,-76.56864999999999 105.8973,-79.151 107.39359999999999,-80.46690000000001 110.35470000000001,-83.09870000000001 111.76814999999999,-84.35825" speed="36.11111111111111" width="3.1455003576537712"/>
		<lane allow="moped bicycle pedestrian custom1 trailer evehicle rail_urban ship private vip custom2 authority delivery rail_electric taxi tram army hov coach motorcycle passenger rail emergency" index="3" length="12.196778632917859" shape="104.83840000000001,-73.78895 105.0709,-73.99275 105.0891,-74.00855 105.18860000000001,-74.0952 108.08115000000001,-76.60964999999999 113.95935,-81.9141" speed="36.11111111111111" width="3.3629107763959385"/>
		<lane allow="moped bicycle pedestrian custom1 trailer evehicle rail_urban ship private vip custom2 authority delivery rail_electric taxi tram army hov coach motorcycle passenger rail emergency" index="4" length="12.196778632917859" shape="107.12004999999999,-71.23405 107.4382,-71.51065 107.82900000000001,-71.85034999999999 110.42865,-74.11015 110.75685,-74.3997 110.79655,-74.4353 116.26745,-79.3395" speed="36.11111111111111" width="3.487534144635713"/>
	</edge>
	<edge from="2" function="normal" id="22" length="12.188819649174256" numLanes="1" priority="1" speed="36.11111111111111" spreadType="center" to="4">
		<lane allow="moped bicycle pedestrian custom1 trailer evehicle rail_urban ship private truck vip custom2 authority delivery rail_electric taxi tram army hov coach motorcycle passenger bus rail emergency" index="0" length="12.188819649174256" shape="95.5856,-84.1497 100.9871,-89.0249 104.61134999999999,-92.34125" speed="36.11111111111111" width="3.9632723701507095"/>
	</edge>
</edges>
