<!-- generated on Tue Feb  9 22:11:47 2021 by Eclipse SUMO netconvert Version 1.8.0
<configuration xmlns:xsi="http://www.w3.org/2001/XMLSchema-instance" xsi:noNamespaceSchemaLocation="http://sumo.dlr.de/xsd/netconvertConfiguration.xsd">

    <input>
        <node-files value="./converted_scenarios/scenario-factory/ITA_Adelfia-1_4_I-1-1/ITA_Adelfia-1_4_I-1-1.nod.xml"/>
        <edge-files value="./converted_scenarios/scenario-factory/ITA_Adelfia-1_4_I-1-1/ITA_Adelfia-1_4_I-1-1.edg.xml"/>
        <connection-files value="./converted_scenarios/scenario-factory/ITA_Adelfia-1_4_I-1-1/ITA_Adelfia-1_4_I-1-1.con.xml"/>
        <tllogic-files value="./converted_scenarios/scenario-factory/ITA_Adelfia-1_4_I-1-1/ITA_Adelfia-1_4_I-1-1.tll.xml"/>
        <type-files value="/home/zen/commonroad-interactive-benchmarks/install/commonroad-map-tool/crmapconverter/sumo_map/templates/DEU.typ.xml"/>
    </input>

    <output>
        <output-file value="./converted_scenarios/scenario-factory/ITA_Adelfia-1_4_I-1-1/ITA_Adelfia-1_4_I-1-1.net.xml"/>
    </output>

    <processing>
        <geometry.remove.keep-edges.explicit value="true"/>
        <geometry.avoid-overlap value="true"/>
        <offset.disable-normalization value="true"/>
    </processing>

    <junctions>
        <no-turnarounds value="true"/>
        <junctions.internal-link-detail value="20"/>
    </junctions>

    <report>
        <aggregate-warnings value="5"/>
    </report>

    <random_number>
        <seed value="1234"/>
    </random_number>

</configuration>
--><net xmlns:xsi="http://www.w3.org/2001/XMLSchema-instance" version="1.6" junctionCornerDetail="5" junctionLinkDetail="20" limitTurnSpeed="5.50" xsi:noNamespaceSchemaLocation="http://sumo.dlr.de/xsd/net_file.xsd">

    <location netOffset="0.00,0.00" convBoundary="-661.36,264.36,-435.49,534.32" origBoundary="-661.36,264.36,-435.49,534.32" projParameter="!"/>

    <type id="highway.bridleway" priority="1" speed="2.78" allow="pedestrian" oneway="1" width="2.00"/>
    <type id="highway.bus_guideway" priority="1" speed="27.78" allow="bus" oneway="1"/>
    <type id="highway.cycleway" priority="1" speed="8.33" allow="bicycle" oneway="0" width="1.00"/>
    <type id="highway.footway" priority="1" speed="2.78" allow="pedestrian" oneway="1" width="2.00"/>
    <type id="highway.ford" priority="1" speed="2.78" allow="army" oneway="0"/>
    <type id="highway.living_street" priority="2" speed="2.78" disallow="tram rail_urban rail rail_electric rail_fast ship" oneway="0"/>
    <type id="highway.motorway" priority="14" speed="39.44" allow="private emergency authority army vip passenger hov taxi bus coach delivery truck trailer motorcycle evehicle custom1 custom2" oneway="1"/>
    <type id="highway.motorway_link" priority="9" speed="22.22" allow="private emergency authority army vip passenger hov taxi bus coach delivery truck trailer motorcycle evehicle custom1 custom2" oneway="1"/>
    <type id="highway.path" priority="1" speed="2.78" allow="pedestrian bicycle" oneway="0" width="2.00"/>
    <type id="highway.pedestrian" priority="1" speed="2.78" allow="pedestrian" oneway="1" width="2.00"/>
    <type id="highway.primary" priority="12" speed="27.78" disallow="pedestrian tram rail_urban rail rail_electric rail_fast ship" oneway="0"/>
    <type id="highway.primary_link" priority="7" speed="22.22" disallow="pedestrian tram rail_urban rail rail_electric rail_fast ship" oneway="0"/>
    <type id="highway.raceway" priority="15" speed="83.33" allow="vip" oneway="0"/>
    <type id="highway.residential" priority="3" speed="13.89" disallow="pedestrian tram rail_urban rail rail_electric rail_fast ship" oneway="0"/>
    <type id="highway.secondary" priority="11" speed="27.78" disallow="pedestrian tram rail_urban rail rail_electric rail_fast ship" oneway="0"/>
    <type id="highway.secondary_link" priority="6" speed="22.22" disallow="pedestrian tram rail_urban rail rail_electric rail_fast ship" oneway="0"/>
    <type id="highway.service" priority="1" speed="5.56" allow="pedestrian delivery bicycle" oneway="0"/>
    <type id="highway.stairs" priority="1" speed="1.39" allow="pedestrian" oneway="1" width="2.00"/>
    <type id="highway.step" priority="1" speed="1.39" allow="pedestrian" oneway="1" width="2.00"/>
    <type id="highway.steps" priority="1" speed="1.39" allow="pedestrian" oneway="1" width="2.00"/>
    <type id="highway.tertiary" priority="10" speed="22.22" disallow="pedestrian tram rail_urban rail rail_electric rail_fast ship" oneway="0"/>
    <type id="highway.tertiary_link" priority="5" speed="22.22" disallow="pedestrian tram rail_urban rail rail_electric rail_fast ship" oneway="0"/>
    <type id="highway.track" priority="1" speed="5.56" allow="pedestrian motorcycle moped bicycle" oneway="0"/>
    <type id="highway.trunk" priority="13" speed="27.78" disallow="pedestrian bicycle tram rail_urban rail rail_electric rail_fast ship" oneway="0"/>
    <type id="highway.trunk_link" priority="8" speed="22.22" disallow="pedestrian bicycle tram rail_urban rail rail_electric rail_fast ship" oneway="0"/>
    <type id="highway.unclassified" priority="4" speed="13.89" disallow="pedestrian tram rail_urban rail rail_electric rail_fast ship" oneway="0"/>
    <type id="highway.unsurfaced" priority="1" speed="8.33" disallow="tram rail_urban rail rail_electric rail_fast ship" oneway="0"/>
    <type id="railway.highspeed" priority="21" speed="69.44" allow="rail_fast" oneway="1"/>
    <type id="railway.light_rail" priority="19" speed="27.78" allow="rail_urban" oneway="1"/>
    <type id="railway.preserved" priority="16" speed="27.78" allow="rail" oneway="1"/>
    <type id="railway.rail" priority="20" speed="44.44" allow="rail" oneway="1"/>
    <type id="railway.subway" priority="18" speed="27.78" allow="rail_urban" oneway="1"/>
    <type id="railway.tram" priority="17" speed="13.89" allow="tram" oneway="1"/>

    <edge id=":34_0" function="internal">
        <lane id=":34_0_0" index="0" disallow="pedestrian tram rail_urban rail rail_electric rail_fast ship" speed="36.11" length="39.48" width="3.50" shape="-606.64,439.83 -611.01,451.54 -620.97,476.62"/>
    </edge>
    <edge id=":34_1" function="internal">
        <lane id=":34_1_0" index="0" disallow="pedestrian tram rail_urban rail rail_electric rail_fast ship" speed="12.07" length="34.58" width="3.50" shape="-606.64,439.83 -607.11,441.09 -608.13,443.45 -609.37,445.75 -610.88,447.93 -612.66,449.90 -613.70,450.82 -614.81,451.64 -615.98,452.35 -617.22,452.96 -618.51,453.46 -619.84,453.83 -621.18,454.09 -622.55,454.24 -625.19,454.24 -627.81,453.93 -630.36,453.37 -634.00,452.18"/>
    </edge>
    <edge id=":34_2" function="internal">
        <lane id=":34_2_0" index="0" disallow="pedestrian tram rail_urban rail rail_electric rail_fast ship" speed="11.06" length="28.86" width="3.50" shape="-632.76,448.91 -629.60,449.94 -627.43,450.42 -625.23,450.69 -623.01,450.69 -621.90,450.57 -620.81,450.36 -619.75,450.06 -618.71,449.67 -617.71,449.18 -616.76,448.61 -615.87,447.95 -615.03,447.22 -613.54,445.58 -612.28,443.75 -611.23,441.80 -610.35,439.76 -609.96,438.71"/>
    </edge>
    <edge id=":34_3" function="internal">
        <lane id=":34_3_0" index="0" disallow="pedestrian tram rail_urban rail rail_electric rail_fast ship" speed="12.23" length="34.70" width="3.50" shape="-632.76,448.91 -630.30,449.95 -627.93,451.18 -625.69,452.62 -623.63,454.32 -622.69,455.27 -621.84,456.29 -621.06,457.38 -620.39,458.53 -619.82,459.74 -619.36,460.99 -619.02,462.28 -618.78,463.60 -618.63,466.26 -618.83,468.92 -619.32,471.54 -620.06,474.11 -620.97,476.62"/>
    </edge>
    <edge id=":34_4" function="internal">
        <lane id=":34_4_0" index="0" disallow="pedestrian tram rail_urban rail rail_electric rail_fast ship" speed="11.23" length="29.07" width="3.50" shape="-624.23,475.34 -623.42,473.12 -622.78,470.90 -622.36,468.67 -622.19,466.45 -622.32,464.23 -622.50,463.19 -622.78,462.16 -623.14,461.15 -623.59,460.19 -624.13,459.27 -624.75,458.39 -625.45,457.56 -626.20,456.80 -627.93,455.36 -629.83,454.14 -631.87,453.08 -634.00,452.18"/>
    </edge>
    <edge id=":34_5" function="internal">
        <lane id=":34_5_0" index="0" disallow="pedestrian tram rail_urban rail rail_electric rail_fast ship" speed="36.11" length="39.31" width="3.50" shape="-624.23,475.34 -614.29,450.31 -609.96,438.71"/>
    </edge>
    <edge id=":35_0" function="internal">
        <lane id=":35_0_0" index="0" disallow="pedestrian tram rail_urban rail rail_electric rail_fast ship" speed="11.24" length="18.04" width="3.50" shape="-585.61,396.75 -587.26,397.77 -589.80,399.75 -591.72,401.63 -593.42,403.70 -594.88,405.95 -596.07,408.36 -596.83,410.37"/>
    </edge>
    <edge id=":35_1" function="internal">
        <lane id=":35_1_0" index="0" disallow="pedestrian tram rail_urban rail rail_electric rail_fast ship" speed="10.82" length="36.99" width="3.50" shape="-568.78,390.87 -572.93,391.45 -576.42,391.64 -579.21,391.51 -581.28,391.18 -583.28,390.57 -585.15,389.62 -586.25,388.77 -587.20,387.74 -587.95,386.57 -588.51,385.29 -588.99,383.25 -589.14,381.16 -588.95,378.37 -588.30,374.94 -587.11,370.94"/>
    </edge>
    <edge id=":35_2" function="internal">
        <lane id=":35_2_0" index="0" disallow="pedestrian tram rail_urban rail rail_electric rail_fast ship" speed="36.11" length="40.48" width="3.50" shape="-583.79,372.05 -590.31,391.21 -596.83,410.37"/>
    </edge>
    <edge id=":35_3" function="internal">
        <lane id=":35_3_0" index="0" disallow="pedestrian tram rail_urban rail rail_electric rail_fast ship" speed="36.11" length="40.50" width="3.50" shape="-600.16,409.28 -593.63,390.09 -587.11,370.94"/>
    </edge>
    <edge id=":36_0" function="internal">
        <lane id=":36_0_0" index="0" disallow="pedestrian tram rail_urban rail rail_electric rail_fast ship" speed="36.11" length="43.12" width="3.50" shape="-557.32,291.07 -563.65,311.69 -570.33,332.18"/>
    </edge>
    <edge id=":36_1" function="internal">
        <lane id=":36_1_0" index="0" disallow="pedestrian tram rail_urban rail rail_electric rail_fast ship" speed="11.64" length="36.31" width="3.50" shape="-586.23,306.74 -583.58,307.11 -580.94,307.68 -578.32,308.52 -575.81,309.69 -574.57,310.45 -573.41,311.32 -572.34,312.31 -571.37,313.42 -570.53,314.64 -569.84,315.94 -569.31,317.31 -568.92,318.71 -568.67,320.12 -568.55,321.53 -568.53,322.96 -568.75,325.67 -569.25,328.36 -570.33,332.18"/>
    </edge>
    <edge id=":36_2" function="internal">
        <lane id=":36_2_0" index="0" disallow="pedestrian tram rail_urban rail rail_electric rail_fast ship" speed="10.60" length="29.88" width="3.50" shape="-573.65,331.08 -572.71,327.77 -572.30,325.51 -572.11,323.22 -572.12,322.07 -572.22,320.92 -572.41,319.79 -572.72,318.68 -573.13,317.61 -573.66,316.59 -574.31,315.64 -575.07,314.77 -575.91,313.99 -576.83,313.30 -577.81,312.70 -579.89,311.73 -582.08,311.02 -584.32,310.53 -586.60,310.22"/>
    </edge>
    <edge id=":36_3" function="internal">
        <lane id=":36_3_0" index="0" disallow="pedestrian tram rail_urban rail rail_electric rail_fast ship" speed="36.11" length="0.93" width="3.50" shape="-573.65,331.08 -573.36,330.20"/>
    </edge>
    <edge id=":36_4" function="internal">
        <lane id=":36_4_0" index="0" disallow="pedestrian tram rail_urban rail rail_electric rail_fast ship" speed="36.11" length="0.48" width="3.50" shape="-573.65,331.06 -573.47,330.62"/>
    </edge>
    <edge id=":38_0" function="internal">
        <lane id=":38_0_0" index="0" disallow="pedestrian tram rail_urban rail rail_electric rail_fast ship" speed="12.39" length="24.50" width="3.50" shape="-512.05,383.01 -512.31,383.22 -514.19,385.14 -515.82,387.27 -517.50,390.02 -519.12,393.41 -520.61,397.44 -521.93,402.09 -522.54,404.71"/>
    </edge>
    <edge id=":38_1" function="internal">
        <lane id=":38_1_0" index="0" disallow="pedestrian tram rail_urban rail rail_electric rail_fast ship" speed="36.11" length="15.56" width="3.50" shape="-512.48,380.72 -516.14,381.40 -527.79,383.52"/>
    </edge>
    <edge id=":38_2" function="internal">
        <lane id=":38_2_0" index="0" disallow="pedestrian tram rail_urban rail rail_electric rail_fast ship" speed="10.26" length="31.01" width="3.50" shape="-525.96,403.99 -525.31,400.07 -525.12,396.78 -525.32,394.15 -525.75,392.22 -526.50,390.39 -527.21,389.27 -528.08,388.28 -529.10,387.45 -530.84,386.51 -532.73,385.92 -534.69,385.62 -537.33,385.56 -540.61,385.87 -541.91,386.08"/>
    </edge>

    <edge id="77363" from="22" to="38" priority="3" type="highway.residential" spreadType="center" length="70.03" shape="-540.93,472.37 -525.37,393.11">
        <lane id="77363_0" index="0" disallow="pedestrian tram rail_urban rail rail_electric rail_fast ship" speed="36.11" length="70.03" width="3.50" customShape="1" shape="-540.93,472.37 -538.76,462.98 -525.96,403.96"/>
    </edge>
    <edge id="77364" from="38" to="25" priority="3" type="highway.residential" spreadType="center" length="70.00" shape="-521.94,393.79 -537.51,473.09">
        <lane id="77364_0" index="0" disallow="pedestrian tram rail_urban rail rail_electric rail_fast ship" speed="36.11" length="70.00" width="3.50" customShape="1" shape="-522.54,404.71 -535.34,463.75 -537.51,473.09"/>
    </edge>
    <edge id="77393" from="34" to="10" priority="3" type="highway.residential" spreadType="center" length="29.29" shape="-621.99,456.93 -661.36,441.73">
        <lane id="77393_0" index="0" disallow="pedestrian tram rail_urban rail rail_electric rail_fast ship" speed="36.11" length="29.29" width="3.50" customShape="1" shape="-634.00,452.18 -647.69,446.96 -661.36,441.73"/>
    </edge>
    <edge id="77394" from="15" to="34" priority="3" type="highway.residential" spreadType="center" length="29.29" shape="-660.11,438.46 -620.73,453.67">
        <lane id="77394_0" index="0" disallow="pedestrian tram rail_urban rail rail_electric rail_fast ship" speed="36.11" length="29.29" width="3.50" customShape="1" shape="-660.11,438.46 -646.44,443.69 -632.75,448.91"/>
    </edge>
    <edge id="78020" from="34" to="8" priority="3" type="highway.residential" spreadType="center" length="64.37" shape="-619.78,455.85 -649.26,534.32">
        <lane id="78020_0" index="0" disallow="pedestrian tram rail_urban rail rail_electric rail_fast ship" speed="36.11" length="64.37" width="3.50" customShape="1" shape="-620.97,476.62 -624.67,486.06 -628.05,494.53 -631.03,500.97 -635.44,509.53 -649.26,534.32"/>
    </edge>
    <edge id="78021" from="17" to="34" priority="3" type="highway.residential" spreadType="center" length="63.93" shape="-652.33,532.64 -623.06,454.62">
        <lane id="78021_0" index="0" disallow="pedestrian tram rail_urban rail rail_electric rail_fast ship" speed="36.11" length="63.93" width="3.50" customShape="1" shape="-652.33,532.64 -638.56,507.95 -634.20,499.47 -631.26,493.13 -627.91,484.73 -624.23,475.33"/>
    </edge>
    <edge id="78023" from="35" to="34" priority="3" type="highway.residential" spreadType="center" length="31.10" shape="-585.77,391.48 -619.88,456.09">
        <lane id="78023_0" index="0" disallow="pedestrian tram rail_urban rail rail_electric rail_fast ship" speed="36.11" length="31.10" width="3.50" customShape="1" shape="-596.83,410.37 -600.32,421.03 -606.66,439.88"/>
    </edge>
    <edge id="78024" from="34" to="35" priority="3" type="highway.residential" spreadType="center" length="31.04" shape="-622.98,454.46 -588.86,389.85">
        <lane id="78024_0" index="0" disallow="pedestrian tram rail_urban rail rail_electric rail_fast ship" speed="36.11" length="31.04" width="3.50" customShape="1" shape="-609.96,438.71 -603.64,419.92 -600.15,409.26"/>
    </edge>
    <edge id="78026" from="36" to="35" priority="3" type="highway.residential" spreadType="center" length="42.08" shape="-570.74,310.50 -585.61,391.02">
        <lane id="78026_0" index="0" disallow="pedestrian tram rail_urban rail rail_electric rail_fast ship" speed="36.11" length="42.08" width="3.50" customShape="1" shape="-570.33,332.18 -577.06,352.13 -583.79,372.05"/>
    </edge>
    <edge id="78027" from="35" to="36" priority="3" type="highway.residential" spreadType="center" length="42.09" shape="-589.05,390.38 -574.18,309.87">
        <lane id="78027_0" index="0" disallow="pedestrian tram rail_urban rail rail_electric rail_fast ship" speed="36.11" length="42.09" width="3.50" customShape="1" shape="-587.11,370.94 -580.38,351.01 -573.65,331.06"/>
    </edge>
    <edge id="78029" from="31" to="36" priority="3" type="highway.residential" spreadType="center" length="26.79" shape="-549.71,265.38 -570.91,311.01">
        <lane id="78029_0" index="0" disallow="pedestrian tram rail_urban rail rail_electric rail_fast ship" speed="36.11" length="26.79" width="3.50" customShape="1" shape="-549.71,265.38 -553.51,278.22 -557.32,291.07"/>
    </edge>
    <edge id="78030" from="36" to="29" priority="3" type="highway.residential" spreadType="center" length="26.80" shape="-574.08,309.54 -553.05,264.36">
        <lane id="78030_0" index="0" disallow="pedestrian tram rail_urban rail rail_electric rail_fast ship" speed="36.11" length="26.80" width="3.50" customShape="1" shape="-560.67,290.05 -556.87,277.22 -553.05,264.36"/>
    </edge>
    <edge id="78647" from="33" to="38" priority="3" type="highway.residential" spreadType="center" length="78.38">
        <lane id="78647_0" index="0" disallow="pedestrian tram rail_urban rail rail_electric rail_fast ship" speed="36.11" length="78.38" width="3.50" customShape="1" shape="-435.49,366.06 -443.07,367.51 -512.48,380.74"/>
    </edge>
    <edge id="78649" from="38" to="35" priority="3" type="highway.residential" spreadType="center" length="59.25">
        <lane id="78649_0" index="0" disallow="pedestrian tram rail_urban rail rail_electric rail_fast ship" speed="36.11" length="59.25" width="3.50" customShape="1" shape="-527.78,383.56 -555.35,388.47 -586.11,393.96"/>
    </edge>
    <edge id="78967" from="32" to="36" priority="3" type="highway.residential" spreadType="center" length="46.36" shape="-632.32,301.80 -572.22,308.49">
        <lane id="78967_0" index="0" disallow="pedestrian tram rail_urban rail rail_electric rail_fast ship" speed="36.11" length="46.36" width="3.50" customShape="1" shape="-632.32,301.80 -609.28,304.27 -586.22,306.74"/>
    </edge>
    <edge id="78968" from="36" to="30" priority="3" type="highway.residential" spreadType="center" length="46.35" shape="-572.61,311.97 -632.69,305.28">
        <lane id="78968_0" index="0" disallow="pedestrian tram rail_urban rail rail_electric rail_fast ship" speed="36.11" length="46.35" width="3.50" customShape="1" shape="-586.60,310.22 -609.65,307.75 -632.69,305.28"/>
    </edge>
    <edge id="80458" from="36" to="37" priority="3" type="highway.residential" spreadType="center" length="38.29">
        <lane id="80458_0" index="0" disallow="pedestrian tram rail_urban rail rail_electric rail_fast ship" speed="36.11" length="38.29" width="3.50" customShape="1" shape="-573.47,330.62 -572.27,327.52 -570.78,324.60 -568.99,321.85 -567.26,319.74 -565.32,317.82 -563.18,316.12 -560.86,314.67 -558.41,313.47 -555.32,312.37 -552.13,311.60 -548.34,311.08 -544.52,310.91 -543.98,310.91"/>
    </edge>

    <junction id="10" type="dead_end" x="-661.36" y="441.73" incLanes="77393_0" intLanes="" shape="-661.99,443.37 -660.74,440.10" rightOfWay="edgePriority"/>
    <junction id="15" type="dead_end" x="-660.11" y="438.46" incLanes="" intLanes="" shape="-660.74,440.10 -659.49,436.83" rightOfWay="edgePriority"/>
    <junction id="17" type="dead_end" x="-652.33" y="532.64" incLanes="" intLanes="" shape="-650.80,533.49 -653.86,531.79" rightOfWay="edgePriority"/>
    <junction id="22" type="dead_end" x="-540.93" y="472.37" incLanes="" intLanes="" shape="-539.23,472.76 -542.64,471.97" rightOfWay="edgePriority"/>
    <junction id="25" type="dead_end" x="-537.51" y="473.09" incLanes="77364_0" intLanes="" shape="-535.80,473.48 -539.21,472.69" rightOfWay="edgePriority"/>
    <junction id="29" type="dead_end" x="-553.05" y="264.36" incLanes="78030_0" intLanes="" shape="-554.73,263.86 -551.38,264.86" rightOfWay="edgePriority"/>
    <junction id="30" type="dead_end" x="-632.69" y="305.28" incLanes="78968_0" intLanes="" shape="-632.88,307.02 -632.51,303.54" rightOfWay="edgePriority"/>
    <junction id="31" type="dead_end" x="-549.71" y="265.38" incLanes="" intLanes="" shape="-551.38,264.88 -548.03,265.88" rightOfWay="edgePriority"/>
    <junction id="32" type="dead_end" x="-632.32" y="301.80" incLanes="" intLanes="" shape="-632.51,303.54 -632.14,300.06" rightOfWay="edgePriority"/>
    <junction id="33" type="dead_end" x="-435.49" y="366.06" incLanes="" intLanes="" shape="-435.82,364.35 -435.16,367.78" rightOfWay="edgePriority"/>
    <junction id="34" type="priority" x="-621.43" y="455.27" incLanes="78023_0 77394_0 78021_0" intLanes=":34_0_0 :34_1_0 :34_2_0 :34_3_0 :34_4_0 :34_5_0" shape="-604.98,440.39 -611.62,438.16 -613.59,442.58 -616.14,445.85 -619.27,447.95 -622.98,448.89 -627.26,448.67 -632.13,447.28 -634.62,453.82 -630.29,455.96 -627.10,458.64 -625.06,461.85 -624.18,465.60 -624.45,469.88 -625.86,474.70 -619.34,477.25">
        <request index="0" response="000000" foes="001000" cont="0"/>
        <request index="1" response="110000" foes="111000" cont="0"/>
        <request index="2" response="100000" foes="100000" cont="0"/>
        <request index="3" response="100011" foes="100011" cont="0"/>
        <request index="4" response="000000" foes="000010" cont="0"/>
        <request index="5" response="000000" foes="001110" cont="0"/>
    </junction>
    <junction id="35" type="priority" x="-587.33" y="390.70" incLanes="78649_0 78026_0 78024_0" intLanes=":35_0_0 :35_1_0 :35_2_0 :35_3_0" shape="-585.80,395.68 -586.42,392.24 -587.02,389.66 -586.39,386.53 -585.29,382.48 -583.83,377.76 -582.13,372.61 -588.76,370.38 -601.82,408.74 -595.17,410.92 -593.60,406.49 -592.03,402.82 -590.47,399.91 -588.91,397.74 -587.35,396.34">
        <request index="0" response="0100" foes="0100" cont="0"/>
        <request index="1" response="1100" foes="1100" cont="0"/>
        <request index="2" response="0000" foes="0011" cont="0"/>
        <request index="3" response="0000" foes="0010" cont="0"/>
    </junction>
    <junction id="36" type="priority" x="-572.47" y="310.22" incLanes="78029_0 78967_0 78027_0" intLanes=":36_0_0 :36_1_0 :36_2_0 :36_3_0 :36_4_0" shape="-577.17,344.92 -566.38,303.14 -569.07,305.05 -571.86,305.52 -575.62,305.67 -580.35,305.49 -586.04,305.00 -586.79,311.96 -581.71,312.98 -577.90,314.83 -575.35,317.51 -574.07,321.01 -574.05,325.34 -575.30,330.50 -568.67,332.74">
        <request index="0" response="00000" foes="10010" cont="0"/>
        <request index="1" response="11001" foes="11001" cont="0"/>
        <request index="2" response="00000" foes="00000" cont="0"/>
        <request index="3" response="00000" foes="00010" cont="0"/>
        <request index="4" response="00001" foes="00011" cont="0"/>
    </junction>
    <junction id="37" type="dead_end" x="-543.98" y="310.91" incLanes="80458_0" intLanes="" shape="-543.97,309.16 -543.98,312.66"/>
    <junction id="38" type="priority" x="-523.67" y="393.49" incLanes="78647_0 77363_0" intLanes=":38_0_0 :38_1_0 :38_2_0" shape="-512.15,382.46 -512.81,379.02 -528.09,381.83 -527.48,385.28 -525.75,387.00 -525.55,389.51 -525.81,393.11 -526.51,397.80 -527.67,403.59 -520.83,405.08 -519.27,398.37 -517.75,392.84 -516.28,388.49 -514.86,385.31 -513.48,383.30">
        <request index="0" response="000" foes="000" cont="0"/>
        <request index="1" response="100" foes="100" cont="0"/>
        <request index="2" response="000" foes="010" cont="0"/>
    </junction>
    <junction id="8" type="dead_end" x="-649.26" y="534.32" incLanes="78020_0" intLanes="" shape="-647.74,535.18 -650.79,533.47" rightOfWay="edgePriority"/>

    <connection from="77363" to="78649" fromLane="0" toLane="0" contPos="-4.00" shape="-525.96,403.99 -525.31,400.07 -525.12,396.78 -525.32,394.15 -525.75,392.22 -526.50,390.39 -527.21,389.27 -528.08,388.28 -529.10,387.45 -530.84,386.51 -532.73,385.92 -534.69,385.62 -537.33,385.56 -540.61,385.87 -541.91,386.08" via=":38_2_0" dir="r" state="M"/>
    <connection from="77394" to="78024" fromLane="0" toLane="0" contPos="-4.00" shape="-632.76,448.91 -629.60,449.94 -627.43,450.42 -625.23,450.69 -623.01,450.69 -621.90,450.57 -620.81,450.36 -619.75,450.06 -618.71,449.67 -617.71,449.18 -616.76,448.61 -615.87,447.95 -615.03,447.22 -613.54,445.58 -612.28,443.75 -611.23,441.80 -610.35,439.76 -609.96,438.71" via=":34_2_0" dir="r" state="m"/>
    <connection from="77394" to="78020" fromLane="0" toLane="0" contPos="-4.00" shape="-632.76,448.91 -630.30,449.95 -627.93,451.18 -625.69,452.62 -623.63,454.32 -622.69,455.27 -621.84,456.29 -621.06,457.38 -620.39,458.53 -619.82,459.74 -619.36,460.99 -619.02,462.28 -618.78,463.60 -618.63,466.26 -618.83,468.92 -619.32,471.54 -620.06,474.11 -620.97,476.62" via=":34_3_0" dir="l" state="m"/>
    <connection from="78021" to="77393" fromLane="0" toLane="0" contPos="-4.00" shape="-624.23,475.33 -623.42,473.12 -622.78,470.90 -622.36,468.67 -622.19,466.45 -622.32,464.23 -622.50,463.19 -622.78,462.16 -623.14,461.15 -623.59,460.19 -624.13,459.27 -624.75,458.39 -625.45,457.56 -626.20,456.80 -627.93,455.36 -629.83,454.14 -631.87,453.08 -634.00,452.18" via=":34_4_0" dir="r" state="M"/>
    <connection from="78021" to="78024" fromLane="0" toLane="0" contPos="-4.00" shape="-624.23,475.33 -614.29,450.31 -609.96,438.71" via=":34_5_0" dir="s" state="M"/>
    <connection from="78023" to="78020" fromLane="0" toLane="0" contPos="-4.00" shape="-606.66,439.88 -611.01,451.54 -620.97,476.62" via=":34_0_0" dir="s" state="M"/>
    <connection from="78023" to="77393" fromLane="0" toLane="0" contPos="-4.00" shape="-606.66,439.88 -607.11,441.09 -608.13,443.45 -609.37,445.75 -610.88,447.93 -612.66,449.90 -613.70,450.82 -614.81,451.64 -615.98,452.35 -617.22,452.96 -618.51,453.46 -619.84,453.83 -621.18,454.09 -622.55,454.24 -625.19,454.24 -627.81,453.93 -630.36,453.37 -634.00,452.18" via=":34_1_0" dir="l" state="m"/>
    <connection from="78024" to="78027" fromLane="0" toLane="0" contPos="-4.00" shape="-600.15,409.26 -593.63,390.09 -587.11,370.94" via=":35_3_0" dir="s" state="M"/>
    <connection from="78026" to="78023" fromLane="0" toLane="0" contPos="-4.00" shape="-583.79,372.05 -590.31,391.21 -596.83,410.37" via=":35_2_0" dir="s" state="M"/>
    <connection from="78027" to="78968" fromLane="0" toLane="0" contPos="-4.00" shape="-573.65,331.08 -572.71,327.77 -572.30,325.51 -572.11,323.22 -572.12,322.07 -572.22,320.92 -572.41,319.79 -572.72,318.68 -573.13,317.61 -573.66,316.59 -574.31,315.64 -575.07,314.77 -575.91,313.99 -576.83,313.30 -577.81,312.70 -579.89,311.73 -582.08,311.02 -584.32,310.53 -586.60,310.22" via=":36_2_0" dir="r" state="M"/>
    <connection from="78027" to="78030" fromLane="0" toLane="0" contPos="-4.00" shape="-573.65,331.08 -566.99,310.64 -560.67,290.05" via=":36_3_0" dir="s" state="M"/>
    <connection from="78027" to="80458" fromLane="0" toLane="0" contPos="-4.00" via=":36_4_0" dir="l" state="m"/>
    <connection from="78029" to="78026" fromLane="0" toLane="0" contPos="-4.00" shape="-557.32,291.07 -563.65,311.69 -570.33,332.18" via=":36_0_0" dir="s" state="M"/>
    <connection from="78647" to="77364" fromLane="0" toLane="0" contPos="-4.00" shape="-504.25,379.17 -506.33,379.71 -508.32,380.51 -510.19,381.57 -512.31,383.22 -514.19,385.14 -515.82,387.27 -517.50,390.02 -519.12,393.41 -520.61,397.44 -521.93,402.09 -522.54,404.71" via=":38_0_0" dir="r" state="M"/>
    <connection from="78647" to="78649" fromLane="0" toLane="0" contPos="-4.00" shape="-504.25,379.17 -516.14,381.40 -541.91,386.08" via=":38_1_0" dir="s" state="m"/>
    <connection from="78649" to="78023" fromLane="0" toLane="0" contPos="-4.00" shape="-568.78,390.87 -573.51,391.88 -577.63,393.08 -581.14,394.42 -584.52,396.07 -587.26,397.77 -589.80,399.75 -591.72,401.63 -593.42,403.70 -594.88,405.95 -596.07,408.36 -596.83,410.37" via=":35_0_0" dir="r" state="m"/>
    <connection from="78649" to="78027" fromLane="0" toLane="0" contPos="-4.00" shape="-568.78,390.87 -572.93,391.45 -576.42,391.64 -579.21,391.51 -581.28,391.18 -583.28,390.57 -585.15,389.62 -586.25,388.77 -587.20,387.74 -587.95,386.57 -588.51,385.29 -588.99,383.25 -589.14,381.16 -588.95,378.37 -588.30,374.94 -587.11,370.94" via=":35_1_0" dir="l" state="m"/>
    <connection from="78967" to="78026" fromLane="0" toLane="0" contPos="-4.00" shape="-586.22,306.74 -583.58,307.11 -580.94,307.68 -578.32,308.52 -575.81,309.69 -574.57,310.45 -573.41,311.32 -572.34,312.31 -571.37,313.42 -570.53,314.64 -569.84,315.94 -569.31,317.31 -568.92,318.71 -568.67,320.12 -568.55,321.53 -568.53,322.96 -568.75,325.67 -569.25,328.36 -570.33,332.18" via=":36_1_0" dir="l" state="m"/>

    <connection from=":34_0" to="78020" fromLane="0" toLane="0" dir="s" state="M"/>
    <connection from=":34_1" to="77393" fromLane="0" toLane="0" dir="l" state="M"/>
    <connection from=":34_2" to="78024" fromLane="0" toLane="0" dir="r" state="M"/>
    <connection from=":34_3" to="78020" fromLane="0" toLane="0" dir="l" state="M"/>
    <connection from=":34_4" to="77393" fromLane="0" toLane="0" dir="r" state="M"/>
    <connection from=":34_5" to="78024" fromLane="0" toLane="0" dir="s" state="M"/>
    <connection from=":35_0" to="78023" fromLane="0" toLane="0" dir="r" state="M"/>
    <connection from=":35_1" to="78027" fromLane="0" toLane="0" dir="l" state="M"/>
    <connection from=":35_2" to="78023" fromLane="0" toLane="0" dir="s" state="M"/>
    <connection from=":35_3" to="78027" fromLane="0" toLane="0" dir="s" state="M"/>
    <connection from=":36_0" to="78026" fromLane="0" toLane="0" dir="s" state="M"/>
    <connection from=":36_1" to="78026" fromLane="0" toLane="0" dir="l" state="M"/>
    <connection from=":36_2" to="78968" fromLane="0" toLane="0" dir="r" state="M"/>
    <connection from=":36_3" to="78030" fromLane="0" toLane="0" dir="s" state="M"/>