<routes>
	<vehicle depart="0.1" departLane="0" departPos="15.342571157569868" departSpeed="2.3403366" id="358" type="bus">
		<route edges="77394 78020"/>
	</vehicle>
	<vehicle depart="0.1" departLane="0" departPos="2.5" departSpeed="4.1195413" id="325" type="passenger">
		<route edges=":34_2 78024"/>
	</vehicle>
	<vehicle depart="0.1" departLane="0" departPos="11.046007475436" departSpeed="4.1799404" id="340" type="passenger">
		<route edges=":34_1 77393"/>
	</vehicle>
	<vehicle depart="0.1" departLane="0" departPos="30.597519948290394" departSpeed="1.8651655" id="348" type="passenger">
		<route edges="78023 77393"/>
	</vehicle>
</routes>
