<routes>
	<vehicle depart="0.1" departLane="1" departPos="97.59755829352868" departSpeed="6.2512895" id="1" type="passenger">
		<route edges="26 26 27 24"/>
	</vehicle>
	<vehicle depart="0.1" departLane="0" departPos="112.75627765283076" departSpeed="6.1880781" id="2" type="passenger">
		<route edges="26 27 24"/>
	</vehicle>
	<vehicle depart="0.1" departLane="0" departPos="127.75632591384209" departSpeed="6.1880781" id="3" type="passenger">
		<route edges="26 27 24"/>
	</vehicle>
</routes>
