<!-- generated on Tue Feb  9 22:04:57 2021 by Eclipse SUMO netconvert Version 1.8.0
<configuration xmlns:xsi="http://www.w3.org/2001/XMLSchema-instance" xsi:noNamespaceSchemaLocation="http://sumo.dlr.de/xsd/netconvertConfiguration.xsd">

    <input>
        <node-files value="./converted_scenarios/scenario-factory/ITA_CarpiCentro-2_1_I-1-1/ITA_CarpiCentro-2_1_I-1-1.nod.xml"/>
        <edge-files value="./converted_scenarios/scenario-factory/ITA_CarpiCentro-2_1_I-1-1/ITA_CarpiCentro-2_1_I-1-1.edg.xml"/>
        <connection-files value="./converted_scenarios/scenario-factory/ITA_CarpiCentro-2_1_I-1-1/ITA_CarpiCentro-2_1_I-1-1.con.xml"/>
        <tllogic-files value="./converted_scenarios/scenario-factory/ITA_CarpiCentro-2_1_I-1-1/ITA_CarpiCentro-2_1_I-1-1.tll.xml"/>
        <type-files value="/home/zen/commonroad-interactive-benchmarks/install/commonroad-map-tool/crmapconverter/sumo_map/templates/DEU.typ.xml"/>
    </input>

    <output>
        <output-file value="./converted_scenarios/scenario-factory/ITA_CarpiCentro-2_1_I-1-1/ITA_CarpiCentro-2_1_I-1-1.net.xml"/>
    </output>

    <processing>
        <geometry.remove.keep-edges.explicit value="true"/>
        <geometry.avoid-overlap value="true"/>
        <offset.disable-normalization value="true"/>
    </processing>

    <junctions>
        <no-turnarounds value="true"/>
        <junctions.internal-link-detail value="20"/>
    </junctions>

    <report>
        <aggregate-warnings value="5"/>
    </report>

    <random_number>
        <seed value="1234"/>
    </random_number>

</configuration>
--><net xmlns:xsi="http://www.w3.org/2001/XMLSchema-instance" version="1.6" junctionCornerDetail="5" junctionLinkDetail="20" limitTurnSpeed="5.50" xsi:noNamespaceSchemaLocation="http://sumo.dlr.de/xsd/net_file.xsd">

    <location netOffset="0.00,0.00" convBoundary="-325.21,-146.56,67.81,285.97" origBoundary="-325.21,-146.56,67.81,285.97" projParameter="!"/>

    <type id="highway.bridleway" priority="1" speed="2.78" allow="pedestrian" oneway="1" width="2.00"/>
    <type id="highway.bus_guideway" priority="1" speed="27.78" allow="bus" oneway="1"/>
    <type id="highway.cycleway" priority="1" speed="8.33" allow="bicycle" oneway="0" width="1.00"/>
    <type id="highway.footway" priority="1" speed="2.78" allow="pedestrian" oneway="1" width="2.00"/>
    <type id="highway.ford" priority="1" speed="2.78" allow="army" oneway="0"/>
    <type id="highway.living_street" priority="2" speed="2.78" disallow="tram rail_urban rail rail_electric rail_fast ship" oneway="0"/>
    <type id="highway.motorway" priority="14" speed="39.44" allow="private emergency authority army vip passenger hov taxi bus coach delivery truck trailer motorcycle evehicle custom1 custom2" oneway="1"/>
    <type id="highway.motorway_link" priority="9" speed="22.22" allow="private emergency authority army vip passenger hov taxi bus coach delivery truck trailer motorcycle evehicle custom1 custom2" oneway="1"/>
    <type id="highway.path" priority="1" speed="2.78" allow="pedestrian bicycle" oneway="0" width="2.00"/>
    <type id="highway.pedestrian" priority="1" speed="2.78" allow="pedestrian" oneway="1" width="2.00"/>
    <type id="highway.primary" priority="12" speed="27.78" disallow="pedestrian tram rail_urban rail rail_electric rail_fast ship" oneway="0"/>
    <type id="highway.primary_link" priority="7" speed="22.22" disallow="pedestrian tram rail_urban rail rail_electric rail_fast ship" oneway="0"/>
    <type id="highway.raceway" priority="15" speed="83.33" allow="vip" oneway="0"/>
    <type id="highway.residential" priority="3" speed="13.89" disallow="pedestrian tram rail_urban rail rail_electric rail_fast ship" oneway="0"/>
    <type id="highway.secondary" priority="11" speed="27.78" disallow="pedestrian tram rail_urban rail rail_electric rail_fast ship" oneway="0"/>
    <type id="highway.secondary_link" priority="6" speed="22.22" disallow="pedestrian tram rail_urban rail rail_electric rail_fast ship" oneway="0"/>
    <type id="highway.service" priority="1" speed="5.56" allow="pedestrian delivery bicycle" oneway="0"/>
    <type id="highway.stairs" priority="1" speed="1.39" allow="pedestrian" oneway="1" width="2.00"/>
    <type id="highway.step" priority="1" speed="1.39" allow="pedestrian" oneway="1" width="2.00"/>
    <type id="highway.steps" priority="1" speed="1.39" allow="pedestrian" oneway="1" width="2.00"/>
    <type id="highway.tertiary" priority="10" speed="22.22" disallow="pedestrian tram rail_urban rail rail_electric rail_fast ship" oneway="0"/>
    <type id="highway.tertiary_link" priority="5" speed="22.22" disallow="pedestrian tram rail_urban rail rail_electric rail_fast ship" oneway="0"/>
    <type id="highway.track" priority="1" speed="5.56" allow="pedestrian motorcycle moped bicycle" oneway="0"/>
    <type id="highway.trunk" priority="13" speed="27.78" disallow="pedestrian bicycle tram rail_urban rail rail_electric rail_fast ship" oneway="0"/>
    <type id="highway.trunk_link" priority="8" speed="22.22" disallow="pedestrian bicycle tram rail_urban rail rail_electric rail_fast ship" oneway="0"/>
    <type id="highway.unclassified" priority="4" speed="13.89" disallow="pedestrian tram rail_urban rail rail_electric rail_fast ship" oneway="0"/>
    <type id="highway.unsurfaced" priority="1" speed="8.33" disallow="tram rail_urban rail rail_electric rail_fast ship" oneway="0"/>
    <type id="railway.highspeed" priority="21" speed="69.44" allow="rail_fast" oneway="1"/>
    <type id="railway.light_rail" priority="19" speed="27.78" allow="rail_urban" oneway="1"/>
    <type id="railway.preserved" priority="16" speed="27.78" allow="rail" oneway="1"/>
    <type id="railway.rail" priority="20" speed="44.44" allow="rail" oneway="1"/>
    <type id="railway.subway" priority="18" speed="27.78" allow="rail_urban" oneway="1"/>
    <type id="railway.tram" priority="17" speed="13.89" allow="tram" oneway="1"/>

    <edge id=":107_0" function="internal">
        <lane id=":107_0_0" index="0" disallow="pedestrian tram rail_urban rail rail_electric rail_fast ship" speed="36.11" length="4.62" width="3.50" shape="-309.68,16.47 -311.60,12.27"/>
    </edge>
    <edge id=":108_0" function="internal">
        <lane id=":108_0_0" index="0" disallow="pedestrian tram rail_urban rail rail_electric rail_fast ship" speed="36.11" length="3.01" width="3.50" shape="-313.77,7.28 -314.96,4.52"/>
    </edge>
    <edge id=":124_0" function="internal">
        <lane id=":124_0_0" index="0" disallow="pedestrian tram rail_urban rail rail_electric rail_fast ship" speed="36.11" length="3.00" width="3.50" shape="-311.75,3.13 -310.55,5.88"/>
    </edge>
    <edge id=":135_0" function="internal">
        <lane id=":135_0_0" index="0" disallow="pedestrian tram rail_urban rail rail_electric rail_fast ship" speed="36.11" length="4.87" width="3.50" shape="-308.45,10.75 -306.41,15.17"/>
    </edge>
    <edge id=":137_0" function="internal">
        <lane id=":137_0_0" index="0" disallow="pedestrian tram rail_urban rail rail_electric rail_fast ship" speed="11.18" length="29.00" width="3.50" shape="-161.96,-11.25 -163.50,-14.23 -164.72,-16.10 -166.12,-17.83 -167.74,-19.38 -168.62,-20.06 -169.56,-20.66 -170.55,-21.18 -171.58,-21.61 -172.64,-21.95 -173.74,-22.19 -174.84,-22.34 -175.96,-22.39 -178.19,-22.26 -180.38,-21.84 -182.52,-21.20 -185.59,-19.94"/>
    </edge>
    <edge id=":137_1" function="internal">
        <lane id=":137_1_0" index="0" disallow="pedestrian tram rail_urban rail rail_electric rail_fast ship" speed="36.11" length="39.03" width="3.50" shape="-161.96,-11.25 -170.07,-29.00 -178.19,-46.75"/>
    </edge>
    <edge id=":137_2" function="internal">
        <lane id=":137_2_0" index="0" disallow="pedestrian tram rail_urban rail rail_electric rail_fast ship" speed="12.37" length="34.67" width="3.50" shape="-161.96,-11.25 -163.38,-14.83 -164.09,-17.30 -164.58,-19.82 -164.78,-22.37 -164.63,-24.94 -164.42,-26.20 -164.11,-27.45 -163.69,-28.66 -163.18,-29.84 -162.57,-30.97 -161.11,-33.07 -159.36,-34.95 -157.39,-36.60 -155.28,-38.05 -151.87,-39.90"/>
    </edge>
    <edge id=":137_3" function="internal">
        <lane id=":137_3_0" index="0" disallow="pedestrian tram rail_urban rail rail_electric rail_fast ship" speed="11.38" length="29.16" width="3.50" shape="-150.36,-36.74 -153.33,-35.13 -155.14,-33.89 -156.79,-32.50 -158.24,-30.94 -159.46,-29.19 -159.93,-28.30 -160.34,-27.35 -160.68,-26.37 -160.93,-25.36 -161.10,-24.36 -161.21,-22.22 -161.04,-20.08 -160.63,-17.94 -160.01,-15.83 -158.77,-12.70"/>
    </edge>
    <edge id=":137_4" function="internal">
        <lane id=":137_4_0" index="0" disallow="pedestrian tram rail_urban rail rail_electric rail_fast ship" speed="36.11" length="39.03" width="3.50" shape="-150.36,-36.74 -168.00,-28.33 -185.59,-19.94"/>
    </edge>
    <edge id=":137_5" function="internal">
        <lane id=":137_5_0" index="0" disallow="pedestrian tram rail_urban rail rail_electric rail_fast ship" speed="12.10" length="34.04" width="3.50" shape="-150.36,-36.74 -154.01,-35.22 -156.51,-34.47 -159.08,-33.97 -161.69,-33.81 -163.00,-33.87 -164.30,-34.03 -165.57,-34.31 -166.82,-34.70 -168.03,-35.20 -169.19,-35.80 -170.30,-36.50 -172.33,-38.15 -174.11,-40.07 -175.66,-42.17 -177.01,-44.41 -178.19,-46.75"/>
    </edge>
    <edge id=":137_6" function="internal">
        <lane id=":137_6_0" index="0" disallow="pedestrian tram rail_urban rail rail_electric rail_fast ship" speed="11.09" length="28.40" width="3.50" shape="-175.01,-48.22 -173.99,-46.19 -172.83,-44.26 -171.52,-42.48 -170.04,-40.88 -168.35,-39.52 -167.49,-38.97 -166.56,-38.49 -165.60,-38.09 -164.60,-37.78 -163.58,-37.56 -162.54,-37.43 -161.51,-37.38 -159.32,-37.52 -157.17,-37.93 -155.05,-38.57 -151.87,-39.90"/>
    </edge>
    <edge id=":137_7" function="internal">
        <lane id=":137_7_0" index="0" disallow="pedestrian tram rail_urban rail rail_electric rail_fast ship" speed="36.11" length="39.06" width="3.50" shape="-175.01,-48.22 -166.89,-30.46 -158.77,-12.70"/>
    </edge>
    <edge id=":137_8" function="internal">
        <lane id=":137_8_0" index="0" disallow="pedestrian tram rail_urban rail rail_electric rail_fast ship" speed="12.28" length="34.46" width="3.50" shape="-175.01,-48.22 -174.49,-47.03 -173.58,-44.63 -172.88,-42.11 -172.44,-39.50 -172.34,-36.85 -172.44,-35.46 -172.65,-34.11 -172.98,-32.78 -173.42,-31.48 -173.97,-30.22 -174.62,-29.02 -175.37,-27.88 -176.21,-26.79 -178.04,-24.88 -180.07,-23.20 -182.24,-21.75 -185.59,-19.94"/>
    </edge>
    <edge id=":137_9" function="internal">
        <lane id=":137_9_0" index="0" disallow="pedestrian tram rail_urban rail rail_electric rail_fast ship" speed="11.28" length="28.92" width="3.50" shape="-187.09,-23.10 -184.18,-24.67 -182.33,-25.91 -180.61,-27.32 -179.07,-28.93 -178.39,-29.81 -177.77,-30.74 -177.24,-31.72 -176.79,-32.74 -176.43,-33.79 -176.17,-34.87 -175.99,-35.97 -175.91,-37.08 -175.99,-39.31 -176.35,-41.50 -176.95,-43.65 -177.74,-45.73 -178.19,-46.75"/>
    </edge>
    <edge id=":137_10" function="internal">
        <lane id=":137_10_0" index="0" disallow="pedestrian tram rail_urban rail rail_electric rail_fast ship" speed="36.11" length="39.02" width="3.50" shape="-187.09,-23.10 -169.51,-31.49 -151.87,-39.90"/>
    </edge>
    <edge id=":137_11" function="internal">
        <lane id=":137_11_0" index="0" disallow="pedestrian tram rail_urban rail rail_electric rail_fast ship" speed="12.18" length="34.65" width="3.50" shape="-187.09,-23.10 -183.55,-24.56 -181.02,-25.31 -178.41,-25.80 -175.76,-25.96 -174.37,-25.90 -173.01,-25.72 -171.66,-25.42 -170.34,-25.00 -169.06,-24.47 -167.84,-23.82 -166.68,-23.08 -165.58,-22.23 -163.66,-20.39 -161.98,-18.33 -160.54,-16.13 -158.77,-12.70"/>
    </edge>
    <edge id=":138_0" function="internal">
        <lane id=":138_0_0" index="0" disallow="pedestrian tram rail_urban rail rail_electric rail_fast ship" speed="36.11" length="39.22" width="3.50" shape="-83.93,110.31 -103.05,118.10 -120.37,124.82"/>
    </edge>
    <edge id=":138_1" function="internal">
        <lane id=":138_1_0" index="0" disallow="pedestrian tram rail_urban rail rail_electric rail_fast ship" speed="12.40" length="34.65" width="3.50" shape="-83.93,110.32 -87.45,111.57 -89.91,112.19 -92.45,112.55 -95.04,112.61 -97.61,112.31 -98.93,112.00 -100.19,111.60 -101.42,111.09 -102.59,110.48 -103.74,109.77 -105.76,108.17 -107.57,106.32 -109.13,104.31 -110.49,102.18 -112.18,98.87"/>
    </edge>
    <edge id=":138_2" function="internal">
        <lane id=":138_2_0" index="0" disallow="pedestrian tram rail_urban rail rail_electric rail_fast ship" speed="11.41" length="29.18" width="3.50" shape="-108.99,97.42 -107.51,100.31 -106.36,102.14 -105.03,103.85 -103.53,105.39 -101.83,106.73 -100.91,107.30 -99.95,107.80 -98.96,108.22 -97.93,108.55 -96.88,108.80 -94.73,109.06 -92.57,109.01 -90.44,108.70 -88.34,108.18 -85.28,107.09"/>
    </edge>
    <edge id=":138_3" function="internal">
        <lane id=":138_3_0" index="0" disallow="pedestrian tram rail_urban rail rail_electric rail_fast ship" speed="11.97" length="34.55" width="3.50" shape="-108.99,97.42 -107.54,101.14 -106.83,103.70 -106.39,106.32 -106.29,108.97 -106.39,110.30 -106.61,111.61 -106.94,112.89 -107.39,114.14 -107.96,115.34 -108.64,116.49 -109.42,117.56 -110.29,118.57 -112.24,120.37 -114.41,121.91 -116.72,123.22 -120.37,124.82"/>
    </edge>
    <edge id=":138_4" function="internal">
        <lane id=":138_4_0" index="0" disallow="pedestrian tram rail_urban rail rail_electric rail_fast ship" speed="10.96" length="28.75" width="3.50" shape="-121.64,121.56 -118.43,120.15 -116.47,119.05 -114.66,117.76 -113.03,116.26 -112.35,115.47 -111.73,114.61 -111.19,113.70 -110.74,112.75 -110.38,111.77 -110.12,110.75 -109.95,109.70 -109.86,108.66 -109.94,106.45 -110.31,104.26 -110.92,102.09 -112.18,98.87"/>
    </edge>
    <edge id=":138_5" function="internal">
        <lane id=":138_5_0" index="0" disallow="pedestrian tram rail_urban rail rail_electric rail_fast ship" speed="36.11" length="39.13" width="3.50" shape="-121.64,121.56 -104.34,114.85 -85.28,107.09"/>
    </edge>
    <edge id=":139_0" function="internal">
        <lane id=":139_0_0" index="0" disallow="pedestrian tram rail_urban rail rail_electric rail_fast ship" speed="36.11" length="26.80" width="3.50" shape="-138.46,131.66 -159.61,139.82 -163.44,141.37"/>
    </edge>
    <edge id=":139_1" function="internal">
        <lane id=":139_1_0" index="0" disallow="pedestrian tram rail_urban rail rail_electric rail_fast ship" speed="12.39" length="33.80" width="3.50" shape="-138.45,131.66 -142.04,132.81 -144.56,133.35 -147.13,133.64 -149.75,133.62 -152.34,133.25 -153.67,132.91 -154.93,132.46 -156.16,131.91 -157.36,131.24 -159.49,129.71 -161.39,127.90 -163.03,125.88 -164.45,123.72 -166.17,120.37"/>
    </edge>
    <edge id=":139_2" function="internal">
        <lane id=":139_2_0" index="0" disallow="pedestrian tram rail_urban rail rail_electric rail_fast ship" speed="11.40" length="28.45" width="3.50" shape="-162.98,118.93 -161.48,121.85 -160.28,123.68 -158.90,125.38 -157.32,126.89 -155.54,128.16 -154.58,128.69 -153.58,129.14 -152.55,129.50 -151.49,129.78 -149.32,130.09 -147.13,130.10 -144.96,129.85 -142.82,129.39 -139.69,128.39"/>
    </edge>
    <edge id=":139_3" function="internal">
        <lane id=":139_3_0" index="0" disallow="pedestrian tram rail_urban rail rail_electric rail_fast ship" speed="10.31" length="24.94" width="3.50" shape="-162.98,118.93 -161.00,123.79 -159.81,127.55 -159.24,130.11 -158.92,132.71 -158.90,134.03 -159.00,135.33 -159.26,136.62 -159.70,137.85 -160.36,138.99 -161.22,139.97 -162.27,140.77 -163.44,141.37"/>
    </edge>
    <edge id=":139_4" function="internal">
        <lane id=":139_4_0" index="0" disallow="pedestrian tram rail_urban rail rail_electric rail_fast ship" speed="9.10" length="19.28" width="3.50" shape="-164.73,138.11 -164.11,137.81 -163.51,137.32 -163.04,136.68 -162.70,135.89 -162.50,135.01 -162.40,134.06 -162.40,133.05 -162.48,132.03 -162.83,129.88 -163.37,127.76 -164.44,124.56 -166.17,120.37"/>
    </edge>
    <edge id=":139_5" function="internal">
        <lane id=":139_5_0" index="0" disallow="pedestrian tram rail_urban rail rail_electric rail_fast ship" speed="36.11" length="26.86" width="3.50" shape="-164.73,138.12 -160.92,136.57 -139.69,128.39"/>
    </edge>
    <edge id=":140_0" function="internal">
        <lane id=":140_0_0" index="0" disallow="pedestrian tram rail_urban rail rail_electric rail_fast ship" speed="11.31" length="29.34" width="3.50" shape="-214.11,13.25 -215.66,10.22 -216.86,8.37 -218.22,6.67 -219.75,5.17 -221.48,3.91 -222.37,3.42 -223.32,2.99 -224.30,2.65 -225.31,2.38 -226.31,2.20 -228.46,2.07 -230.61,2.24 -232.77,2.65 -234.90,3.27 -238.05,4.51"/>
    </edge>
    <edge id=":140_1" function="internal">
        <lane id=":140_1_0" index="0" disallow="pedestrian tram rail_urban rail rail_electric rail_fast ship" speed="36.11" length="39.24" width="3.50" shape="-214.11,13.25 -221.86,-3.67 -227.73,-15.75 -231.09,-22.12"/>
    </edge>
    <edge id=":140_2" function="internal">
        <lane id=":140_2_0" index="0" disallow="pedestrian tram rail_urban rail rail_electric rail_fast ship" speed="12.30" length="34.26" width="3.50" shape="-214.11,13.25 -215.55,9.55 -216.26,7.01 -216.72,4.42 -216.86,1.79 -216.64,-0.83 -216.37,-2.12 -215.99,-3.39 -215.51,-4.61 -214.93,-5.79 -214.24,-6.92 -212.63,-9.00 -210.74,-10.83 -208.65,-12.43 -206.41,-13.82 -204.07,-15.04"/>
    </edge>
    <edge id=":140_3" function="internal">
        <lane id=":140_3_0" index="0" disallow="pedestrian tram rail_urban rail rail_electric rail_fast ship" speed="11.30" length="28.77" width="3.50" shape="-202.57,-11.88 -204.60,-10.82 -206.53,-9.63 -208.30,-8.27 -209.87,-6.74 -211.22,-5.01 -211.75,-4.12 -212.22,-3.17 -212.61,-2.18 -212.91,-1.16 -213.12,-0.15 -213.31,2.03 -213.18,4.22 -212.79,6.42 -212.18,8.58 -210.92,11.82"/>
    </edge>
    <edge id=":140_4" function="internal">
        <lane id=":140_4_0" index="0" disallow="pedestrian tram rail_urban rail rail_electric rail_fast ship" speed="36.11" length="39.08" width="3.50" shape="-202.57,-11.88 -212.81,-7.05 -238.05,4.51"/>
    </edge>
    <edge id=":140_5" function="internal">
        <lane id=":140_5_0" index="0" disallow="pedestrian tram rail_urban rail rail_electric rail_fast ship" speed="12.50" length="34.19" width="3.50" shape="-202.57,-11.88 -204.85,-10.90 -207.21,-10.11 -209.68,-9.54 -212.23,-9.27 -214.82,-9.35 -217.38,-9.82 -219.84,-10.69 -222.13,-11.91 -224.20,-13.42 -226.06,-15.14 -227.71,-17.02 -229.19,-19.02 -231.09,-22.12"/>
    </edge>
    <edge id=":140_6" function="internal">
        <lane id=":140_6_0" index="0" disallow="pedestrian tram rail_urban rail rail_electric rail_fast ship" speed="11.52" length="28.86" width="3.50" shape="-228.04,-23.83 -226.37,-21.10 -225.10,-19.38 -223.69,-17.77 -222.13,-16.31 -220.41,-15.04 -218.53,-14.02 -216.52,-13.30 -214.42,-12.90 -212.28,-12.83 -210.15,-13.04 -208.07,-13.52 -206.04,-14.19 -204.07,-15.04"/>
    </edge>
    <edge id=":140_7" function="internal">
        <lane id=":140_7_0" index="0" disallow="pedestrian tram rail_urban rail rail_electric rail_fast ship" speed="36.11" length="39.56" width="3.50" shape="-228.04,-23.83 -224.63,-17.36 -218.71,-5.20 -210.92,11.82"/>
    </edge>
    <edge id=":140_8" function="internal">
        <lane id=":140_8_0" index="0" disallow="pedestrian tram rail_urban rail rail_electric rail_fast ship" speed="11.95" length="35.06" width="3.50" shape="-228.04,-23.83 -226.86,-21.51 -225.86,-19.08 -225.09,-16.52 -224.64,-13.88 -224.56,-12.47 -224.60,-11.08 -224.76,-9.69 -225.06,-8.32 -225.49,-6.97 -226.04,-5.68 -226.72,-4.46 -227.49,-3.30 -228.37,-2.21 -230.27,-0.31 -232.37,1.33 -234.60,2.75 -238.05,4.51"/>
    </edge>
    <edge id=":140_9" function="internal">
        <lane id=":140_9_0" index="0" disallow="pedestrian tram rail_urban rail rail_electric rail_fast ship" speed="10.93" length="29.14" width="3.50" shape="-239.49,1.32 -236.49,-0.20 -234.60,-1.41 -232.83,-2.79 -231.24,-4.37 -230.54,-5.25 -229.91,-6.17 -229.36,-7.16 -228.91,-8.18 -228.57,-9.25 -228.33,-10.35 -228.19,-11.46 -228.16,-12.58 -228.22,-13.70 -228.59,-15.92 -229.23,-18.07 -230.09,-20.14 -231.09,-22.12"/>
    </edge>
    <edge id=":140_10" function="internal">
        <lane id=":140_10_0" index="0" disallow="pedestrian tram rail_urban rail rail_electric rail_fast ship" speed="36.11" length="39.02" width="3.50" shape="-239.49,1.32 -214.29,-10.23 -204.07,-15.04"/>
    </edge>
    <edge id=":140_11" function="internal">
        <lane id=":140_11_0" index="0" disallow="pedestrian tram rail_urban rail rail_electric rail_fast ship" speed="12.30" length="34.93" width="3.50" shape="-239.49,1.32 -235.88,-0.10 -233.40,-0.82 -230.86,-1.30 -228.28,-1.49 -225.70,-1.33 -224.42,-1.11 -223.17,-0.78 -221.95,-0.34 -220.78,0.19 -219.65,0.82 -217.56,2.35 -215.71,4.15 -214.10,6.17 -212.69,8.35 -210.92,11.82"/>
    </edge>
    <edge id=":141_0" function="internal">
        <lane id=":141_0_0" index="0" disallow="pedestrian tram rail_urban rail rail_electric rail_fast ship" speed="11.10" length="29.01" width="3.50" shape="-106.73,-37.70 -108.28,-40.84 -109.49,-42.75 -110.87,-44.52 -112.47,-46.09 -113.29,-46.74 -114.19,-47.33 -115.13,-47.84 -116.10,-48.26 -117.11,-48.59 -118.15,-48.82 -119.22,-48.96 -120.27,-49.02 -122.50,-48.89 -124.70,-48.46 -126.87,-47.81 -130.11,-46.45"/>
    </edge>
    <edge id=":141_1" function="internal">
        <lane id=":141_1_0" index="0" disallow="pedestrian tram rail_urban rail rail_electric rail_fast ship" speed="36.11" length="38.82" width="3.50" shape="-106.73,-37.70 -109.18,-43.33 -122.44,-73.20"/>
    </edge>
    <edge id=":141_2" function="internal">
        <lane id=":141_2_0" index="0" disallow="pedestrian tram rail_urban rail rail_electric rail_fast ship" speed="12.13" length="34.34" width="3.50" shape="-106.73,-37.70 -107.67,-40.08 -108.44,-42.53 -109.00,-45.07 -109.27,-47.70 -109.20,-50.34 -109.01,-51.71 -108.71,-53.04 -108.28,-54.35 -107.74,-55.61 -107.09,-56.81 -106.34,-57.95 -105.51,-59.02 -104.58,-60.03 -102.61,-61.76 -100.45,-63.25 -98.20,-64.51 -95.88,-65.56"/>
    </edge>
    <edge id=":141_3" function="internal">
        <lane id=":141_3_0" index="0" disallow="pedestrian tram rail_urban rail rail_electric rail_fast ship" speed="11.12" length="28.69" width="3.50" shape="-94.54,-62.33 -96.54,-61.42 -98.47,-60.35 -100.29,-59.09 -101.94,-57.63 -102.68,-56.82 -103.36,-55.95 -103.97,-55.02 -104.49,-54.05 -104.92,-53.04 -105.26,-51.98 -105.50,-50.91 -105.66,-49.82 -105.71,-47.61 -105.47,-45.42 -105.00,-43.26 -104.33,-41.16 -103.52,-39.10"/>
    </edge>
    <edge id=":141_4" function="internal">
        <lane id=":141_4_0" index="0" disallow="pedestrian tram rail_urban rail rail_electric rail_fast ship" speed="36.11" length="38.96" width="3.50" shape="-94.54,-62.33 -100.20,-59.96 -115.22,-53.38 -130.11,-46.45"/>
    </edge>
    <edge id=":141_5" function="internal">
        <lane id=":141_5_0" index="0" disallow="pedestrian tram rail_urban rail rail_electric rail_fast ship" speed="12.30" length="34.02" width="3.50" shape="-94.54,-62.33 -96.90,-61.44 -99.36,-60.73 -101.90,-60.23 -104.51,-60.01 -107.13,-60.14 -108.48,-60.35 -109.79,-60.67 -111.08,-61.10 -112.32,-61.64 -113.51,-62.28 -114.64,-63.01 -115.73,-63.84 -117.62,-65.64 -119.27,-67.66 -120.70,-69.83 -122.44,-73.20"/>
    </edge>
    <edge id=":141_6" function="internal">
        <lane id=":141_6_0" index="0" disallow="pedestrian tram rail_urban rail rail_electric rail_fast ship" speed="11.30" length="28.55" width="3.50" shape="-119.26,-74.64 -117.74,-71.72 -116.53,-69.88 -115.14,-68.18 -113.55,-66.67 -112.67,-66.00 -111.75,-65.41 -110.78,-64.89 -109.77,-64.45 -108.73,-64.10 -107.66,-63.84 -106.58,-63.67 -104.38,-63.57 -102.19,-63.75 -100.04,-64.18 -97.93,-64.80 -95.88,-65.56"/>
    </edge>
    <edge id=":141_7" function="internal">
        <lane id=":141_7_0" index="0" disallow="pedestrian tram rail_urban rail rail_electric rail_fast ship" speed="36.11" length="38.87" width="3.50" shape="-119.26,-74.64 -105.97,-44.73 -103.52,-39.10"/>
    </edge>
    <edge id=":141_8" function="internal">
        <lane id=":141_8_0" index="0" disallow="pedestrian tram rail_urban rail rail_electric rail_fast ship" speed="12.34" length="34.48" width="3.50" shape="-119.26,-74.64 -118.25,-72.19 -117.45,-69.67 -116.90,-67.07 -116.65,-64.44 -116.78,-61.79 -117.01,-60.48 -117.34,-59.20 -117.77,-57.95 -118.32,-56.74 -118.96,-55.58 -120.51,-53.44 -122.34,-51.52 -124.39,-49.84 -126.59,-48.36 -130.11,-46.45"/>
    </edge>
    <edge id=":141_9" function="internal">
        <lane id=":141_9_0" index="0" disallow="pedestrian tram rail_urban rail rail_electric rail_fast ship" speed="11.35" length="28.97" width="3.50" shape="-131.62,-49.61 -128.53,-51.28 -126.65,-52.54 -124.91,-53.97 -123.38,-55.56 -122.08,-57.35 -121.58,-58.27 -121.13,-59.24 -120.78,-60.25 -120.51,-61.28 -120.33,-62.31 -120.21,-64.51 -120.41,-66.71 -120.88,-68.90 -121.57,-71.07 -122.44,-73.20"/>
    </edge>
    <edge id=":141_10" function="internal">
        <lane id=":141_10_0" index="0" disallow="pedestrian tram rail_urban rail rail_electric rail_fast ship" speed="36.11" length="39.14" width="3.50" shape="-131.62,-49.61 -116.66,-56.57 -101.57,-63.18 -95.88,-65.56"/>
    </edge>
    <edge id=":141_11" function="internal">
        <lane id=":141_11_0" index="0" disallow="pedestrian tram rail_urban rail rail_electric rail_fast ship" speed="12.11" length="34.73" width="3.50" shape="-131.62,-49.61 -127.90,-51.16 -125.35,-51.93 -122.72,-52.43 -120.06,-52.60 -118.73,-52.53 -117.41,-52.35 -116.10,-52.06 -114.83,-51.65 -113.61,-51.12 -112.43,-50.48 -111.32,-49.75 -110.27,-48.92 -108.37,-47.05 -106.73,-44.95 -105.30,-42.69 -103.52,-39.10"/>
    </edge>
    <edge id=":142_0" function="internal">
        <lane id=":142_0_0" index="0" disallow="pedestrian tram rail_urban rail rail_electric rail_fast ship" speed="36.11" length="38.88" width="3.50" shape="-29.17,87.16 -61.17,100.79 -64.95,102.38"/>
    </edge>
    <edge id=":142_1" function="internal">
        <lane id=":142_1_0" index="0" disallow="pedestrian tram rail_urban rail rail_electric rail_fast ship" speed="12.30" length="34.36" width="3.50" shape="-29.17,87.16 -31.56,88.09 -34.03,88.85 -36.60,89.37 -39.24,89.59 -41.89,89.46 -43.27,89.23 -44.59,88.89 -45.88,88.44 -47.12,87.88 -48.32,87.21 -49.44,86.46 -50.52,85.60 -52.41,83.77 -54.05,81.72 -55.48,79.54 -57.24,76.14"/>
    </edge>
    <edge id=":142_2" function="internal">
        <lane id=":142_2_0" index="0" disallow="pedestrian tram rail_urban rail rail_electric rail_fast ship" speed="11.30" length="28.84" width="3.50" shape="-54.05,74.69 -52.52,77.64 -51.31,79.50 -49.92,81.23 -48.34,82.78 -47.46,83.47 -46.54,84.09 -45.58,84.63 -44.56,85.09 -43.52,85.46 -42.44,85.73 -41.35,85.92 -39.13,86.03 -36.92,85.85 -34.75,85.40 -32.63,84.76 -30.56,83.94"/>
    </edge>
    <edge id=":142_3" function="internal">
        <lane id=":142_3_0" index="0" disallow="pedestrian tram rail_urban rail rail_electric rail_fast ship" speed="12.08" length="34.38" width="3.50" shape="-54.05,74.69 -52.60,78.38 -51.89,80.93 -51.44,83.53 -51.33,86.17 -51.42,87.49 -51.62,88.80 -51.94,90.09 -52.37,91.34 -52.91,92.54 -53.55,93.70 -54.30,94.79 -55.13,95.82 -57.01,97.67 -59.11,99.28 -61.37,100.66 -64.95,102.38"/>
    </edge>
    <edge id=":142_4" function="internal">
        <lane id=":142_4_0" index="0" disallow="pedestrian tram rail_urban rail rail_electric rail_fast ship" speed="11.07" length="28.70" width="3.50" shape="-66.32,99.16 -63.18,97.65 -61.27,96.48 -59.50,95.14 -57.93,93.58 -57.27,92.77 -56.68,91.89 -56.16,90.97 -55.73,90.01 -55.39,89.02 -55.14,87.99 -54.98,86.94 -54.90,85.90 -54.99,83.69 -55.37,81.51 -55.97,79.35 -57.24,76.14"/>
    </edge>
    <edge id=":142_5" function="internal">
        <lane id=":142_5_0" index="0" disallow="pedestrian tram rail_urban rail rail_electric rail_fast ship" speed="36.11" length="38.86" width="3.50" shape="-66.32,99.16 -62.53,97.57 -30.56,83.94"/>
    </edge>
    <edge id=":143_0" function="internal">
        <lane id=":143_0_0" index="0" disallow="pedestrian tram rail_urban rail rail_electric rail_fast ship" speed="10.71" length="26.86" width="3.50" shape="-264.09,35.96 -264.58,34.91 -266.27,31.78 -267.56,29.88 -269.02,28.14 -270.68,26.62 -271.54,26.00 -272.46,25.44 -273.42,24.98 -274.42,24.62 -275.45,24.37 -276.50,24.21 -277.57,24.16 -278.62,24.19 -280.84,24.54 -283.00,25.20 -285.13,26.09"/>
    </edge>
    <edge id=":143_1" function="internal">
        <lane id=":143_1_0" index="0" disallow="pedestrian tram rail_urban rail rail_electric rail_fast ship" speed="36.11" length="38.75" width="3.50" shape="-264.09,35.96 -276.61,8.29 -280.13,0.69"/>
    </edge>
    <edge id=":143_2" function="internal">
        <lane id=":143_2_0" index="0" disallow="pedestrian tram rail_urban rail rail_electric rail_fast ship" speed="12.25" length="34.45" width="3.50" shape="-264.09,35.96 -265.06,33.59 -265.85,31.14 -266.43,28.59 -266.73,25.96 -266.68,23.30 -266.51,21.92 -266.22,20.59 -265.82,19.28 -265.30,18.01 -264.67,16.79 -263.95,15.63 -263.14,14.54 -262.23,13.50 -260.31,11.71 -258.19,10.15 -255.96,8.83 -253.65,7.69"/>
    </edge>
    <edge id=":143_3" function="internal">
        <lane id=":143_3_0" index="0" disallow="pedestrian tram rail_urban rail rail_electric rail_fast ship" speed="11.25" length="28.89" width="3.50" shape="-252.21,10.88 -254.21,11.86 -256.12,13.00 -257.91,14.32 -259.53,15.83 -260.26,16.67 -260.93,17.56 -261.51,18.51 -262.02,19.50 -262.44,20.53 -262.76,21.59 -262.99,22.68 -263.13,23.78 -263.17,26.00 -262.91,28.20 -262.42,30.37 -261.73,32.48 -260.90,34.54"/>
    </edge>
    <edge id=":143_4" function="internal">
        <lane id=":143_4_0" index="0" disallow="pedestrian tram rail_urban rail rail_electric rail_fast ship" speed="36.11" length="36.26" width="3.50" shape="-252.21,10.88 -263.54,16.01 -285.13,26.09"/>
    </edge>
    <edge id=":143_5" function="internal">