<routes>
	<vehicle depart="0.1" departLane="0" departPos="7.4719946341057915" departSpeed="1.7250337" id="316" type="passenger">
		<route edges=":142_2 51754"/>
	</vehicle>
	<vehicle depart="0.1" departLane="0" departPos="2.5" departSpeed="1.647832" id="342" type="passenger">
		<route edges="52070 51754"/>
	</vehicle>
	<vehicle depart="0.1" departLane="0" departPos="13.434394760139064" departSpeed="0.0" id="350" type="passenger">
		<route edges="51772 52074"/>
	</vehicle>
</routes>
