<routes>
	<vehicle depart="0.1" departLane="1" departPos="13.73145641425893" departSpeed="1.914876" id="312" type="bicycle">
		<route edges="32138 35276"/>
	</vehicle>
	<vehicle depart="0.1" departLane="1" departPos="26.26981629443292" departSpeed="1.6302898" id="316" type="passenger">
		<route edges=":40_1 31792 31892"/>
	</vehicle>
	<vehicle depart="0.1" departLane="0" departPos="7.404517880254314" departSpeed="1.7506573" id="318" type="passenger">
		<route edges=":39_5 31323"/>
	</vehicle>
	<vehicle depart="0.1" departLane="0" departPos="13.890715911120795" departSpeed="0.54963715" id="321" type="passenger">
		<route edges=":39_8 35276"/>
	</vehicle>
	<vehicle depart="0.1" departLane="0" departPos="2.5" departSpeed="1.0570158" id="324" type="passenger">
		<route edges=":39_8 35276"/>
	</vehicle>
	<vehicle depart="0.1" departLane="0" departPos="6.68426034951047" departSpeed="1.3006569" id="328" type="passenger">
		<route edges="31792 31323"/>
	</vehicle>
	<vehicle depart="0.1" departLane="1" departPos="12.134129430697131" departSpeed="2.1312278" id="329" type="passenger">
		<route edges="32138 35276"/>
	</vehicle>
	<vehicle depart="0.1" departLane="1" departPos="22.652576822825434" departSpeed="5.8868967" id="333" type="passenger">
		<route edges=":38_2 32138 35276"/>
	</vehicle>
	<vehicle depart="0.1" departLane="0" departPos="2.5" departSpeed="0.52463605" id="341" type="passenger">
		<route edges="31405 31690"/>
	</vehicle>
	<vehicle depart="0.1" departLane="1" departPos="6.85937132627403" departSpeed="1.1851002" id="345" type="passenger">
		<route edges="35289 31657 31892"/>
	</vehicle>
</routes>
