<routes>
	<vehicle depart="0.1" departLane="0" departPos="11.836444514581018" departSpeed="0.16658496" id="31" type="passenger">
		<route edges="85822"/>
	</vehicle>
	<vehicle depart="0.1" departLane="0" departPos="15.171723586744136" departSpeed="0.013217326" id="39" type="passenger">
		<route edges=":17_5 85822"/>
	</vehicle>
	<vehicle depart="0.1" departLane="0" departPos="24.7905431020113" departSpeed="0.042409347" id="310" type="passenger">
		<route edges=":17_8 85600"/>
	</vehicle>
	<vehicle depart="0.1" departLane="0" departPos="2.5" departSpeed="2.2135882" id="313" type="passenger">
		<route edges=":17_7 85818"/>
	</vehicle>
	<vehicle depart="0.1" departLane="0" departPos="20.519050040929777" departSpeed="0.03569652" id="316" type="passenger">
		<route edges="85821 85600"/>
	</vehicle>
	<vehicle depart="0.1" departLane="0" departPos="10.151969860560067" departSpeed="0.023618202" id="320" type="passenger">
		<route edges="85821 85600"/>
	</vehicle>
	<vehicle depart="0.1" departLane="0" departPos="50.53604997719672" departSpeed="6.2013202" id="330" type="motorcycle">
		<route edges="85819 85600"/>
	</vehicle>
	<vehicle depart="0.1" departLane="0" departPos="33.413109765595536" departSpeed="1.478743" id="30" type="truck">
		<route edges=":17_5 85822"/>
	</vehicle>
</routes>
