<routes>
	<vehicle depart="0.1" departLane="0" departPos="62.420531377663195" departSpeed="3.2352192e-05" id="32" type="passenger">
		<route edges="47880 47828"/>
	</vehicle>
	<vehicle depart="0.1" departLane="0" departPos="4.650980794269624" departSpeed="0.12609671" id="323" type="passenger">
		<route edges=":90_11 47879"/>
	</vehicle>
	<vehicle depart="0.1" departLane="0" departPos="42.912097593653336" departSpeed="1.1150268" id="331" type="passenger">
		<route edges="47901 47829"/>
	</vehicle>
	<vehicle depart="0.1" departLane="0" departPos="34.11684262561336" departSpeed="0.88984548" id="332" type="passenger">
		<route edges="47901 47829"/>
	</vehicle>
	<vehicle depart="0.1" departLane="0" departPos="32.35275758983046" departSpeed="3.7439246" id="334" type="passenger">
		<route edges=":90_4 47828"/>
	</vehicle>
	<vehicle depart="0.1" departLane="0" departPos="69.92093381723416" departSpeed="0.0" id="335" type="passenger">
		<route edges="47880 47828"/>
	</vehicle>
	<vehicle depart="0.1" departLane="0" departPos="64.35919152747853" departSpeed="4.4330011" id="347" type="passenger">
		<route edges="47903 47900"/>
	</vehicle>
	<vehicle depart="0.1" departLane="0" departPos="24.28881073334452" departSpeed="0.22750989" id="360" type="passenger">
		<route edges="47901 47829"/>
	</vehicle>
	<vehicle depart="0.1" departLane="0" departPos="43.29936049532472" departSpeed="3.4023933" id="363" type="passenger">
		<route edges="47903 47829"/>
	</vehicle>
	<vehicle depart="0.1" departLane="0" departPos="8.015212251728634" departSpeed="5.3333748" id="353" type="motorcycle">
		<route edges=":89_2 47829 47879"/>
	</vehicle>
</routes>
