<!-- generated on 2020-12-18 16:04:45.573342 by ipykernel_launcher.py v1_2_0+5214-53edc58fcd
-->
<nodes>
	<node id="1" type="from" x="696890.72" y="5346589.15"/>
	<node id="2" type="to" x="696846.15" y="5346588.55"/>
	<node id="3" type="from" x="696846.19" y="5346586.05"/>
	<node id="4" type="to" x="696890.735" y="5346586.65"/>
	<node id="5" type="from" x="696775.255" y="5346833.35"/>
	<node id="6" type="to" x="696759.38" y="5346735.35"/>
	<node id="7" type="from" x="696761.77" y="5346734.6"/>
	<node id="8" type="to" x="696777.76" y="5346833.25"/>
	<node id="9" type="from" x="696846.5700000001" y="5346554.65"/>
	<node id="10" type="to" x="696841.075" y="5346579.65"/>
	<node id="11" type="from" x="696838.62" y="5346579.1"/>
	<node id="12" type="to" x="696844.12" y="5346554.15"/>
	<node id="13" type="from" x="696900.5" y="5346536.65"/>
	<node id="14" type="to" x="696899.655" y="5346580.8"/>
	<node id="15" type="from" x="696897.15" y="5346580.75"/>
	<node id="16" type="to" x="696897.995" y="5346536.6"/>
	<node id="17" type="from" x="696817.46" y="5346720.95"/>
	<node id="18" type="to" x="696766.1599999999" y="5346727.45"/>
	<node id="19" type="from" x="696765.715" y="5346725.0"/>
	<node id="20" type="to" x="696817.095" y="5346718.45"/>
	<node id="21" type="from" x="697008.12" y="5346650.85"/>
	<node id="22" type="to" x="696959.9450000001" y="5346649.65"/>
	<node id="23" type="from" x="696960.01" y="5346647.15"/>
	<node id="24" type="to" x="697008.1799999999" y="5346648.35"/>
	<node id="25" type="from" x="696939.815" y="5346708.85"/>
	<node id="26" type="to" x="696941.08" y="5346657.55"/>
	<node id="27" type="from" x="696943.585" y="5346657.6"/>
	<node id="28" type="to" x="696942.325" y="5346708.95"/>
	<node id="29" type="from" x="696736.23" y="5346562.699999999"/>
	<node id="30" type="to" x="696737.86" y="5346584.1"/>
	<node id="31" type="from" x="696735.36" y="5346584.25"/>
	<node id="32" type="to" x="696733.73" y="5346562.9"/>
	<node id="33" type="from" x="696873.47" y="5346709.15"/>
	<node id="34" type="to" x="696875.095" y="5346655.35"/>
	<node id="35" type="from" x="696877.6" y="5346655.45"/>
	<node id="36" type="to" x="696875.975" y="5346709.2"/>
	<node id="37" type="from" x="696862.665" y="5346488.95"/>
	<node id="38" type="to" x="696998.135" y="5346477.45"/>
	<node id="39" type="from" x="696998.365" y="5346479.95"/>
	<node id="40" type="to" x="696862.875" y="5346491.4"/>
	<node id="41" type="from" x="696956.74" y="5346527.65"/>
	<node id="42" type="to" x="696954.91" y="5346581.55"/>
	<node id="43" type="from" x="696952.405" y="5346581.45"/>
	<node id="44" type="to" x="696954.235" y="5346527.55"/>
	<node id="45" type="from" x="696856.745" y="5346495.65"/>
	<node id="46" type="to" x="696856.765" y="5346495.95"/>
	<node id="47" type="from" x="696854.26" y="5346496.05"/>
	<node id="48" type="to" x="696854.245" y="5346495.800000001"/>
	<node id="49" type="from" x="696856.615" y="5346504.25"/>
	<node id="50" type="to" x="696849.715" y="5346539.95"/>
	<node id="51" type="from" x="696847.27" y="5346539.4"/>
	<node id="52" type="to" x="696854.12" y="5346504.0"/>
	<node id="53" type="from" x="696926.095" y="5346616.7"/>
	<node id="54" type="to" x="696926.355" y="5346595.55"/>
	<node id="55" type="from" x="696928.86" y="5346595.6"/>
	<node id="56" type="to" x="696928.605" y="5346616.75"/>
	<node id="57" type="from" x="696743.05" y="5346705.15"/>
	<node id="58" type="to" x="696648.6000000001" y="5346718.95"/>
	<node id="59" type="from" x="696648.21" y="5346716.45"/>
	<node id="60" type="to" x="696743.015" y="5346702.65"/>
	<node id="61" type="from" x="696838.345" y="5346594.35"/>
	<node id="62" type="to" x="696827.23" y="5346710.5"/>
	<node id="63" type="from" x="696824.73" y="5346710.35"/>
	<node id="64" type="to" x="696835.87" y="5346593.949999999"/>
	<node id="65" type="from" x="696826.57" y="5346726.5"/>
	<node id="66" type="to" x="696823.765" y="5346829.0"/>
	<node id="67" type="from" x="696821.255" y="5346828.95"/>
	<node id="68" type="to" x="696824.065" y="5346726.45"/>
	<node id="69" type="from" x="696641.8999999999" y="5346513.05"/>
	<node id="70" type="to" x="696847.9" y="5346490.05"/>
	<node id="71" type="from" x="696848.085" y="5346492.55"/>
	<node id="72" type="to" x="696642.2949999999" y="5346515.5"/>
	<node id="73" type="from" x="696771.88" y="5346635.55"/>
	<node id="74" type="to" x="696641.735" y="5346582.0"/>
	<node id="75" type="from" x="696643.205" y="5346579.95"/>
	<node id="76" type="to" x="696771.63" y="5346633.05"/>
	<node id="77" type="from" x="696986.55" y="5346589.7"/>
	<node id="78" type="to" x="696960.7" y="5346589.95"/>
	<node id="79" type="from" x="696960.7" y="5346587.45"/>
	<node id="80" type="to" x="696986.53" y="5346587.2"/>
	<node id="81" type="from" x="696758.3899999999" y="5346701.95"/>
	<node id="82" type="to" x="696778.315" y="5346641.1"/>
	<node id="83" type="from" x="696780.825" y="5346641.1"/>
	<node id="84" type="to" x="696758.54" y="5346704.45"/>
	<node id="85" type="from" x="696838.595" y="5346547.85"/>
	<node id="86" type="to" x="696800.54" y="5346551.35"/>
	<node id="87" type="from" x="696800.29" y="5346548.85"/>
	<node id="88" type="to" x="696838.365" y="5346545.4"/>
	<node id="89" type="from" x="696779.71" y="5346626.6"/>
	<node id="90" type="to" x="696791.31" y="5346558.35"/>
	<node id="91" type="from" x="696793.78" y="5346558.75"/>
	<node id="92" type="to" x="696782.1799999999" y="5346627.05"/>
	<node id="93" type="from" x="696946.125" y="5346589.9"/>
	<node id="94" type="to" x="696934.77" y="5346589.75"/>
	<node id="95" type="from" x="696934.78" y="5346587.25"/>
	<node id="96" type="to" x="696946.13" y="5346587.4"/>
	<node id="97" type="from" x="696785.44" y="5346552.5"/>
	<node id="98" type="to" x="696741.535" y="5346556.05"/>
	<node id="99" type="from" x="696741.275" y="5346553.55"/>
	<node id="100" type="to" x="696785.28" y="5346550.0"/>
	<node id="101" type="from" x="697007.385" y="5346717.45"/>
	<node id="102" type="to" x="696948.1699999999" y="5346717.65"/>
	<node id="103" type="from" x="696948.185" y="5346715.15"/>
	<node id="104" type="to" x="697007.375" y="5346714.95"/>
	<node id="105" type="from" x="696933.625" y="5346717.7"/>
	<node id="106" type="to" x="696881.8" y="5346717.9"/>
	<node id="107" type="from" x="696881.815" y="5346715.4"/>
	<node id="108" type="to" x="696933.5900000001" y="5346715.2"/>
	<node id="109" type="from" x="696754.72" y="5346721.6"/>
	<node id="110" type="to" x="696751.27" y="5346712.05"/>
	<node id="111" type="from" x="696753.625" y="5346711.199999999"/>
	<node id="112" type="to" x="696757.075" y="5346720.75"/>
	<node id="113" type="from" x="696726.96" y="5346557.45"/>
	<node id="114" type="to" x="696649.5" y="5346567.75"/>
	<node id="115" type="from" x="696649.165" y="5346565.25"/>
	<node id="116" type="to" x="696726.695" y="5346555.0"/>
	<node id="117" type="from" x="696920.395" y="5346589.55"/>
	<node id="118" type="to" x="696905.5549999999" y="5346589.35"/>
	<node id="119" type="from" x="696905.605" y="5346586.85"/>
	<node id="120" type="to" x="696920.45" y="5346587.05"/>
	<node id="121" type="from" x="696866.965" y="5346717.85"/>
	<node id="122" type="to" x="696833.73" y="5346718.5"/>
	<node id="123" type="from" x="696833.4099999999" y="5346716.05"/>
	<node id="124" type="to" x="696866.975" y="5346715.35"/>
</nodes>
