<routes>
	<vehicle depart="0.1" departLane="1" departPos="53.67656642263522" departSpeed="0.086712897" id="315" type="bicycle">
		<route edges="14724 14720"/>
	</vehicle>
	<vehicle depart="0.1" departLane="0" departPos="36.99005958130792" departSpeed="7.0224816" id="353" type="bus">
		<route edges=":52_3 14727 14620"/>
	</vehicle>
	<vehicle depart="0.1" departLane="0" departPos="59.53129824872279" departSpeed="0.036322084" id="33" type="passenger">
		<route edges="14724"/>
	</vehicle>
	<vehicle depart="0.1" departLane="1" departPos="62.08573715677092" departSpeed="0.0016454854" id="335" type="passenger">
		<route edges="14724 14720"/>
	</vehicle>
	<vehicle depart="0.1" departLane="0" departPos="44.1570173529331" departSpeed="4.765047" id="348" type="passenger">
		<route edges="14727 14620"/>
	</vehicle>
	<vehicle depart="0.1" departLane="1" departPos="40.692736989909406" departSpeed="1.1959505" id="349" type="passenger">
		<route edges="14724 14720"/>
	</vehicle>
	<vehicle depart="0.1" departLane="1" departPos="29.84926593749326" departSpeed="2.7535165" id="350" type="passenger">
		<route edges="14724 14720"/>
	</vehicle>
	<vehicle depart="0.1" departLane="1" departPos="52.190403459719164" departSpeed="0.077141157" id="338" type="motorcycle">
		<route edges="14724 14720"/>
	</vehicle>
	<vehicle depart="0.1" departLane="1" departPos="46.97492816129703" departSpeed="0.24315153" id="343" type="motorcycle">
		<route edges="14724 14720"/>
	</vehicle>
	<vehicle depart="0.1" departLane="1" departPos="72.11504902099139" departSpeed="0.0" id="312" type="truck">
		<route edges="14724 14720"/>
	</vehicle>
</routes>
