<routes>
	<vehicle depart="0.1" departLane="0" departPos="12.89515575330113" departSpeed="5.6453359" id="37" type="bicycle">
		<route edges="11296 11299"/>
	</vehicle>
	<vehicle depart="0.1" departLane="0" departPos="70.046458272586" departSpeed="0.50641244" id="32" type="passenger">
		<route edges="11338 11299"/>
	</vehicle>
	<vehicle depart="0.1" departLane="0" departPos="59.067275189592245" departSpeed="0.65747189" id="35" type="passenger">
		<route edges="11338 11299"/>
	</vehicle>
	<vehicle depart="0.1" departLane="0" departPos="2.5" departSpeed="1.7170921" id="314" type="passenger">
		<route edges=":38_1 11299"/>
	</vehicle>
	<vehicle depart="0.1" departLane="0" departPos="32.50891759343159" departSpeed="1.3262729" id="318" type="passenger">
		<route edges=":38_1 11299"/>
	</vehicle>
	<vehicle depart="0.1" departLane="0" departPos="21.4623459077143" departSpeed="18.110239" id="341" type="passenger">
		<route edges=":38_2 11295 11292"/>
	</vehicle>
	<vehicle depart="0.1" departLane="0" departPos="11.684039437854999" departSpeed="16.07366" id="349" type="passenger">
		<route edges="11298 11295"/>
	</vehicle>
</routes>
