<!-- generated on Tue Feb  9 22:17:47 2021 by Eclipse SUMO netconvert Version 1.8.0
<configuration xmlns:xsi="http://www.w3.org/2001/XMLSchema-instance" xsi:noNamespaceSchemaLocation="http://sumo.dlr.de/xsd/netconvertConfiguration.xsd">

    <input>
        <node-files value="./converted_scenarios/scenario-factory/BEL_Putte-5_2_I-1-1/BEL_Putte-5_2_I-1-1.nod.xml"/>
        <edge-files value="./converted_scenarios/scenario-factory/BEL_Putte-5_2_I-1-1/BEL_Putte-5_2_I-1-1.edg.xml"/>
        <connection-files value="./converted_scenarios/scenario-factory/BEL_Putte-5_2_I-1-1/BEL_Putte-5_2_I-1-1.con.xml"/>
        <tllogic-files value="./converted_scenarios/scenario-factory/BEL_Putte-5_2_I-1-1/BEL_Putte-5_2_I-1-1.tll.xml"/>
        <type-files value="/home/zen/commonroad-interactive-benchmarks/install/commonroad-map-tool/crmapconverter/sumo_map/templates/DEU.typ.xml"/>
    </input>

    <output>
        <output-file value="./converted_scenarios/scenario-factory/BEL_Putte-5_2_I-1-1/BEL_Putte-5_2_I-1-1.net.xml"/>
    </output>

    <processing>
        <geometry.remove.keep-edges.explicit value="true"/>
        <geometry.avoid-overlap value="true"/>
        <offset.disable-normalization value="true"/>
    </processing>

    <junctions>
        <no-turnarounds value="true"/>
        <junctions.internal-link-detail value="20"/>
    </junctions>

    <report>
        <aggregate-warnings value="5"/>
    </report>

    <random_number>
        <seed value="1234"/>
    </random_number>

</configuration>
--><net xmlns:xsi="http://www.w3.org/2001/XMLSchema-instance" version="1.6" junctionCornerDetail="5" junctionLinkDetail="20" limitTurnSpeed="5.50" xsi:noNamespaceSchemaLocation="http://sumo.dlr.de/xsd/net_file.xsd">

    <location netOffset="0.00,0.00" convBoundary="93.18,-781.42,322.42,-481.89" origBoundary="93.18,-781.42,322.42,-481.89" projParameter="!"/>

    <type id="highway.bridleway" priority="1" speed="2.78" allow="pedestrian" oneway="1" width="2.00"/>
    <type id="highway.bus_guideway" priority="1" speed="27.78" allow="bus" oneway="1"/>
    <type id="highway.cycleway" priority="1" speed="8.33" allow="bicycle" oneway="0" width="1.00"/>
    <type id="highway.footway" priority="1" speed="2.78" allow="pedestrian" oneway="1" width="2.00"/>
    <type id="highway.ford" priority="1" speed="2.78" allow="army" oneway="0"/>
    <type id="highway.living_street" priority="2" speed="2.78" disallow="tram rail_urban rail rail_electric rail_fast ship" oneway="0"/>
    <type id="highway.motorway" priority="14" speed="39.44" allow="private emergency authority army vip passenger hov taxi bus coach delivery truck trailer motorcycle evehicle custom1 custom2" oneway="1"/>
    <type id="highway.motorway_link" priority="9" speed="22.22" allow="private emergency authority army vip passenger hov taxi bus coach delivery truck trailer motorcycle evehicle custom1 custom2" oneway="1"/>
    <type id="highway.path" priority="1" speed="2.78" allow="pedestrian bicycle" oneway="0" width="2.00"/>
    <type id="highway.pedestrian" priority="1" speed="2.78" allow="pedestrian" oneway="1" width="2.00"/>
    <type id="highway.primary" priority="12" speed="27.78" disallow="pedestrian tram rail_urban rail rail_electric rail_fast ship" oneway="0"/>
    <type id="highway.primary_link" priority="7" speed="22.22" disallow="pedestrian tram rail_urban rail rail_electric rail_fast ship" oneway="0"/>
    <type id="highway.raceway" priority="15" speed="83.33" allow="vip" oneway="0"/>
    <type id="highway.residential" priority="3" speed="13.89" disallow="pedestrian tram rail_urban rail rail_electric rail_fast ship" oneway="0"/>
    <type id="highway.secondary" priority="11" speed="27.78" disallow="pedestrian tram rail_urban rail rail_electric rail_fast ship" oneway="0"/>
    <type id="highway.secondary_link" priority="6" speed="22.22" disallow="pedestrian tram rail_urban rail rail_electric rail_fast ship" oneway="0"/>
    <type id="highway.service" priority="1" speed="5.56" allow="pedestrian delivery bicycle" oneway="0"/>
    <type id="highway.stairs" priority="1" speed="1.39" allow="pedestrian" oneway="1" width="2.00"/>
    <type id="highway.step" priority="1" speed="1.39" allow="pedestrian" oneway="1" width="2.00"/>
    <type id="highway.steps" priority="1" speed="1.39" allow="pedestrian" oneway="1" width="2.00"/>
    <type id="highway.tertiary" priority="10" speed="22.22" disallow="pedestrian tram rail_urban rail rail_electric rail_fast ship" oneway="0"/>
    <type id="highway.tertiary_link" priority="5" speed="22.22" disallow="pedestrian tram rail_urban rail rail_electric rail_fast ship" oneway="0"/>
    <type id="highway.track" priority="1" speed="5.56" allow="pedestrian motorcycle moped bicycle" oneway="0"/>
    <type id="highway.trunk" priority="13" speed="27.78" disallow="pedestrian bicycle tram rail_urban rail rail_electric rail_fast ship" oneway="0"/>
    <type id="highway.trunk_link" priority="8" speed="22.22" disallow="pedestrian bicycle tram rail_urban rail rail_electric rail_fast ship" oneway="0"/>
    <type id="highway.unclassified" priority="4" speed="13.89" disallow="pedestrian tram rail_urban rail rail_electric rail_fast ship" oneway="0"/>
    <type id="highway.unsurfaced" priority="1" speed="8.33" disallow="tram rail_urban rail rail_electric rail_fast ship" oneway="0"/>
    <type id="railway.highspeed" priority="21" speed="69.44" allow="rail_fast" oneway="1"/>
    <type id="railway.light_rail" priority="19" speed="27.78" allow="rail_urban" oneway="1"/>
    <type id="railway.preserved" priority="16" speed="27.78" allow="rail" oneway="1"/>
    <type id="railway.rail" priority="20" speed="44.44" allow="rail" oneway="1"/>
    <type id="railway.subway" priority="18" speed="27.78" allow="rail_urban" oneway="1"/>
    <type id="railway.tram" priority="17" speed="13.89" allow="tram" oneway="1"/>

    <edge id=":37_0" function="internal">
        <lane id=":37_0_0" index="0" disallow="pedestrian tram rail_urban rail rail_electric rail_fast ship" speed="36.11" length="40.93" width="3.50" shape="208.53,-557.02 199.20,-566.97 192.25,-574.83 187.61,-580.52 184.53,-584.76 182.87,-587.44 182.37,-588.38"/>
    </edge>
    <edge id=":37_1" function="internal">
        <lane id=":37_1_0" index="0" disallow="pedestrian tram rail_urban rail rail_electric rail_fast ship" speed="11.50" length="37.00" width="3.50" shape="208.53,-557.02 207.59,-558.03 205.02,-561.14 203.47,-563.44 202.16,-565.89 201.60,-567.23 201.16,-568.61 200.84,-570.05 200.67,-571.53 200.67,-573.03 200.86,-574.54 201.23,-576.00 201.77,-577.41 202.46,-578.73 203.27,-579.95 204.18,-581.08 205.18,-582.14 207.27,-583.96 209.53,-585.54 211.89,-586.93"/>
    </edge>
    <edge id=":37_2" function="internal">
        <lane id=":37_2_0" index="0" disallow="pedestrian tram rail_urban rail rail_electric rail_fast ship" speed="10.46" length="30.34" width="3.50" shape="213.55,-583.85 211.54,-582.67 209.63,-581.33 207.88,-579.79 207.08,-578.94 206.36,-578.02 205.72,-577.05 205.19,-576.01 204.77,-574.92 204.50,-573.78 204.37,-572.62 204.38,-571.46 204.53,-570.30 204.79,-569.16 205.15,-568.06 205.60,-566.98 206.71,-564.92 208.02,-562.99 210.26,-560.30 211.06,-559.44"/>
    </edge>
    <edge id=":37_3" function="internal">
        <lane id=":37_3_0" index="0" disallow="pedestrian tram rail_urban rail rail_electric rail_fast ship" speed="12.31" length="36.16" width="3.50" shape="213.55,-583.85 210.10,-582.11 206.53,-580.60 202.83,-579.44 200.31,-578.91 197.74,-578.65 195.16,-578.71 193.88,-578.89 192.62,-579.17 191.39,-579.56 190.20,-580.06 189.06,-580.67 187.99,-581.38 186.98,-582.19 186.04,-583.07 184.38,-585.05 182.98,-587.22 182.37,-588.38"/>
    </edge>
    <edge id=":37_4" function="internal">
        <lane id=":37_4_0" index="0" disallow="pedestrian tram rail_urban rail rail_electric rail_fast ship" speed="11.31" length="30.35" width="3.50" shape="185.55,-589.84 186.01,-588.99 187.19,-587.16 188.59,-585.53 189.34,-584.85 190.15,-584.22 191.02,-583.68 191.94,-583.22 192.89,-582.84 193.88,-582.56 194.90,-582.36 195.92,-582.24 198.10,-582.23 200.26,-582.50 202.42,-582.97 205.65,-584.02 208.80,-585.37 211.89,-586.93"/>
    </edge>
    <edge id=":37_5" function="internal">
        <lane id=":37_5_0" index="0" disallow="pedestrian tram rail_urban rail rail_electric rail_fast ship" speed="36.11" length="39.77" width="3.50" shape="185.55,-589.84 185.94,-589.10 187.52,-586.57 190.51,-582.48 195.05,-576.94 201.87,-569.23 211.06,-559.44"/>
    </edge>
    <edge id=":38_0" function="internal">
        <lane id=":38_0_0" index="0" disallow="pedestrian tram rail_urban rail rail_electric rail_fast ship" speed="11.11" length="29.07" width="3.50" shape="172.11,-614.91 171.77,-616.13 170.68,-619.53 169.33,-622.78 168.28,-624.82 167.06,-626.73 165.64,-628.48 164.89,-629.23 164.07,-629.92 163.20,-630.53 162.29,-631.05 161.34,-631.47 160.35,-631.79 159.33,-632.00 158.29,-632.11 157.26,-632.12 155.07,-631.88 152.89,-631.31"/>
    </edge>
    <edge id=":38_1" function="internal">
        <lane id=":38_1_0" index="0" disallow="pedestrian tram rail_urban rail rail_electric rail_fast ship" speed="21.32" length="37.27" width="3.50" shape="172.11,-614.91 171.35,-618.23 170.86,-621.49 170.60,-624.80 170.61,-629.18 171.01,-633.54 171.75,-637.85 172.80,-642.08 174.13,-646.23 176.11,-651.25"/>
    </edge>
    <edge id=":38_2" function="internal">
        <lane id=":38_2_0" index="0" disallow="pedestrian tram rail_urban rail rail_electric rail_fast ship" speed="20.59" length="34.82" width="3.50" shape="179.32,-649.85 177.44,-645.10 176.19,-641.20 175.19,-637.22 174.49,-633.19 174.11,-629.11 174.09,-625.01 174.33,-621.94 174.79,-618.90 175.47,-615.91"/>
    </edge>
    <edge id=":38_3" function="internal">
        <lane id=":38_3_0" index="0" disallow="pedestrian tram rail_urban rail rail_electric rail_fast ship" speed="18.32" length="33.21" width="3.50" shape="179.32,-649.85 178.82,-648.80 177.67,-646.82 176.30,-644.96 174.00,-642.49 171.44,-640.32 168.72,-638.42 165.88,-636.74 161.98,-634.79 157.99,-633.11 152.89,-631.31"/>
    </edge>
    <edge id=":38_4" function="internal">
        <lane id=":38_4_0" index="0" disallow="pedestrian tram rail_urban rail rail_electric rail_fast ship" speed="17.51" length="30.30" width="3.50" shape="151.77,-634.62 156.59,-636.32 160.31,-637.87 163.93,-639.65 166.54,-641.17 169.04,-642.88 171.37,-644.81 173.45,-647.00 174.66,-648.61 175.68,-650.35 176.11,-651.25"/>
    </edge>
    <edge id=":38_5" function="internal">
        <lane id=":38_5_0" index="0" disallow="pedestrian tram rail_urban rail rail_electric rail_fast ship" speed="12.12" length="34.78" width="3.50" shape="151.77,-634.63 154.42,-635.32 157.07,-635.66 158.40,-635.66 159.73,-635.55 161.05,-635.31 162.33,-634.94 163.57,-634.44 164.75,-633.82 165.86,-633.08 166.90,-632.25 167.87,-631.33 169.59,-629.29 171.06,-627.06 172.32,-624.70 173.87,-621.00 175.11,-617.19 175.47,-615.91"/>
    </edge>
    <edge id=":39_0" function="internal">
        <lane id=":39_0_0" index="0" disallow="pedestrian tram rail_urban rail rail_electric rail_fast ship" speed="36.11" length="41.04" width="3.50" shape="248.88,-514.92 234.69,-529.74 220.50,-544.56"/>
    </edge>
    <edge id=":39_1" function="internal">
        <lane id=":39_1_0" index="0" disallow="pedestrian tram rail_urban rail rail_electric rail_fast ship" speed="11.36" length="42.74" width="3.50" shape="248.88,-514.92 247.82,-516.06 244.84,-519.57 242.98,-522.09 241.33,-524.77 240.60,-526.23 239.97,-527.75 239.47,-529.36 239.16,-531.07 239.11,-532.85 239.38,-534.66 240.02,-536.39 240.98,-537.95 242.18,-539.28 243.52,-540.37 244.94,-541.28 246.44,-542.04 249.40,-543.17 252.44,-544.00 255.49,-544.60"/>
    </edge>
    <edge id=":39_2" function="internal">
        <lane id=":39_2_0" index="0" disallow="pedestrian tram rail_urban rail rail_electric rail_fast ship" speed="10.26" length="34.60" width="3.50" shape="256.11,-541.16 253.47,-540.63 250.90,-539.93 248.43,-538.97 247.25,-538.35 246.13,-537.62 245.12,-536.76 244.25,-535.76 243.59,-534.61 243.18,-533.35 243.02,-532.03 243.11,-530.70 243.38,-529.40 243.79,-528.14 244.32,-526.91 244.93,-525.73 246.34,-523.48 247.92,-521.34 250.51,-518.31 251.42,-517.33"/>
    </edge>
    <edge id=":39_3" function="internal">
        <lane id=":39_3_0" index="0" disallow="pedestrian tram rail_urban rail rail_electric rail_fast ship" speed="16.94" length="36.89" width="3.50" shape="256.11,-541.16 249.44,-540.19 243.88,-539.65 238.30,-539.45 233.84,-539.63 230.51,-540.04 227.25,-540.78 225.14,-541.52 223.14,-542.51 221.31,-543.79 220.50,-544.56"/>
    </edge>
    <edge id=":39_4" function="internal">
        <lane id=":39_4_0" index="0" disallow="pedestrian tram rail_urban rail rail_electric rail_fast ship" speed="16.16" length="33.50" width="3.50" shape="223.00,-547.01 223.62,-546.41 225.16,-545.36 226.87,-544.57 228.70,-543.97 231.66,-543.36 234.69,-543.04 238.82,-542.93 244.03,-543.16 249.25,-543.69 255.49,-544.60"/>
    </edge>
    <edge id=":39_5" function="internal">
        <lane id=":39_5_0" index="0" disallow="pedestrian tram rail_urban rail rail_electric rail_fast ship" speed="36.11" length="41.09" width="3.50" shape="223.00,-547.01 237.22,-532.16 251.42,-517.33"/>
    </edge>
    <edge id=":40_0" function="internal">
        <lane id=":40_0_0" index="0" disallow="pedestrian tram rail_urban rail rail_electric rail_fast ship" speed="18.55" length="29.86" width="3.50" shape="216.97,-695.03 211.25,-692.55 206.64,-690.27 203.06,-688.25 200.48,-686.58 198.01,-684.73 195.74,-682.64 194.39,-681.09 193.25,-679.39 192.79,-678.47"/>
    </edge>
    <edge id=":40_1" function="internal">
        <lane id=":40_1_0" index="0" disallow="pedestrian tram rail_urban rail rail_electric rail_fast ship" speed="11.81" length="35.17" width="3.50" shape="216.97,-695.03 214.34,-694.15 213.02,-693.87 211.68,-693.71 210.33,-693.70 208.99,-693.83 207.67,-694.13 206.41,-694.59 205.21,-695.21 204.08,-695.96 203.04,-696.82 202.09,-697.77 200.42,-699.89 199.01,-702.19 197.82,-704.62 196.36,-708.39 195.18,-712.27 194.52,-714.89"/>
    </edge>
    <edge id=":40_2" function="internal">
        <lane id=":40_2_0" index="0" disallow="pedestrian tram rail_urban rail rail_electric rail_fast ship" speed="10.78" length="29.09" width="3.50" shape="197.89,-715.83 198.51,-713.36 199.54,-709.92 200.80,-706.60 201.79,-704.50 202.94,-702.52 204.29,-700.71 205.01,-699.93 205.80,-699.22 206.63,-698.60 207.52,-698.09 208.44,-697.70 209.40,-697.43 210.39,-697.29 211.41,-697.27 212.45,-697.36 213.46,-697.55 215.61,-698.25"/>
    </edge>
    <edge id=":40_3" function="internal">
        <lane id=":40_3_0" index="0" disallow="pedestrian tram rail_urban rail rail_electric rail_fast ship" speed="22.13" length="38.39" width="3.50" shape="197.89,-715.83 198.56,-712.47 198.95,-709.21 199.12,-704.85 198.91,-700.48 198.34,-696.15 197.45,-691.87 196.28,-687.66 194.47,-682.50 192.79,-678.47"/>
    </edge>
    <edge id=":40_4" function="internal">
        <lane id=":40_4_0" index="0" disallow="pedestrian tram rail_urban rail rail_electric rail_fast ship" speed="21.41" length="35.95" width="3.50" shape="189.60,-679.91 191.19,-683.72 192.91,-688.62 194.02,-692.60 194.87,-696.63 195.41,-700.70 195.62,-704.78 195.47,-708.87 195.11,-711.89 194.52,-714.89"/>
    </edge>
    <edge id=":40_5" function="internal">
        <lane id=":40_5_0" index="0" disallow="pedestrian tram rail_urban rail rail_electric rail_fast ship" speed="19.34" length="32.47" width="3.50" shape="189.60,-679.91 190.15,-681.01 191.44,-682.98 192.96,-684.78 195.44,-687.11 198.11,-689.17 200.90,-691.01 204.71,-693.20 209.60,-695.64 215.61,-698.25"/>
    </edge>

    <edge id="11137" from="13" to="37" priority="3" type="highway.residential" spreadType="center" length="70.06" shape="275.16,-616.58 202.97,-576.05">
        <lane id="11137_0" index="0" disallow="pedestrian tram rail_urban rail rail_electric rail_fast ship" speed="36.11" length="70.06" width="3.50" customShape="1" shape="275.16,-616.58 272.40,-615.32 266.46,-612.56 262.95,-610.59 260.89,-609.16 258.28,-606.78 255.96,-604.85 254.25,-603.78 249.70,-601.63 222.94,-588.72 213.50,-583.83"/>
    </edge>
    <edge id="11138" from="37" to="10" priority="3" type="highway.residential" spreadType="center" length="70.00" shape="201.26,-579.11 273.49,-619.67">
        <lane id="11138_0" index="0" disallow="pedestrian tram rail_urban rail rail_electric rail_fast ship" speed="36.11" length="70.00" width="3.50" customShape="1" shape="211.89,-586.93 221.33,-591.83 248.13,-604.76 252.59,-606.86 254.09,-607.82 256.29,-609.72 258.99,-612.11 261.22,-613.63 264.86,-615.67 270.87,-618.47 273.49,-619.67"/>
    </edge>
    <edge id="11289" from="39" to="25" priority="3" type="highway.residential" spreadType="center" length="44.68" shape="243.95,-535.99 281.41,-484.21">
        <lane id="11289_0" index="0" disallow="pedestrian tram rail_urban rail rail_electric rail_fast ship" speed="36.11" length="44.68" width="3.50" customShape="1" shape="251.42,-517.33 251.77,-516.96 263.52,-504.31 281.41,-484.21"/>
    </edge>
    <edge id="11290" from="36" to="39" priority="3" type="highway.residential" spreadType="center" length="44.57" shape="278.79,-481.89 241.12,-533.94">
        <lane id="11290_0" index="0" disallow="pedestrian tram rail_urban rail rail_electric rail_fast ship" speed="36.11" length="44.57" width="3.50" customShape="1" shape="278.79,-481.89 260.94,-501.95 249.22,-514.56 248.88,-514.93"/>
    </edge>
    <edge id="11292" from="37" to="39" priority="3" type="highway.residential" spreadType="center" length="17.27" shape="203.42,-578.80 243.87,-536.09">
        <lane id="11292_0" index="0" disallow="pedestrian tram rail_urban rail rail_electric rail_fast ship" speed="36.11" length="17.27" width="3.50" customShape="1" shape="211.06,-559.44 217.04,-553.21 223.02,-546.98"/>
    </edge>
    <edge id="11293" from="39" to="37" priority="3" type="highway.residential" spreadType="center" length="17.29" shape="241.33,-533.69 200.88,-576.40">
        <lane id="11293_0" index="0" disallow="pedestrian tram rail_urban rail rail_electric rail_fast ship" speed="36.11" length="17.29" width="3.50" customShape="1" shape="220.50,-544.56 214.51,-550.79 208.52,-557.03"/>
    </edge>
    <edge id="11295" from="38" to="37" priority="3" type="highway.residential" spreadType="center" length="27.98" shape="169.41,-633.95 203.64,-578.52">
        <lane id="11295_0" index="0" disallow="pedestrian tram rail_urban rail rail_electric rail_fast ship" speed="36.11" length="27.98" width="3.50" customShape="1" shape="175.47,-615.91 176.04,-613.96 179.41,-604.40 182.76,-595.91 185.55,-589.84"/>
    </edge>
    <edge id="11296" from="37" to="38" priority="3" type="highway.residential" spreadType="center" length="28.57" shape="200.66,-576.68 166.44,-632.11">
        <lane id="11296_0" index="0" disallow="pedestrian tram rail_urban rail rail_electric rail_fast ship" speed="36.11" length="28.57" width="3.50" customShape="1" shape="182.37,-588.38 179.55,-594.52 176.13,-603.19 172.69,-612.95 172.08,-615.01"/>
    </edge>
    <edge id="11298" from="40" to="38" priority="3" type="highway.residential" spreadType="center" length="31.70" shape="202.80,-696.27 169.50,-632.19">
        <lane id="11298_0" index="0" disallow="pedestrian tram rail_urban rail rail_electric rail_fast ship" speed="36.11" length="31.70" width="3.50" customShape="1" shape="192.79,-678.47 191.52,-675.68 183.58,-659.14 179.29,-649.79"/>
    </edge>
    <edge id="11299" from="38" to="40" priority="3" type="highway.residential" spreadType="center" length="31.68" shape="166.40,-633.80 199.69,-697.88">
        <lane id="11299_0" index="0" disallow="pedestrian tram rail_urban rail rail_electric rail_fast ship" speed="36.11" length="31.68" width="3.50" customShape="1" shape="176.11,-651.25 180.39,-660.58 188.34,-677.13 189.60,-679.91"/>
    </edge>
    <edge id="11313" from="39" to="26" priority="3" type="highway.residential" spreadType="center" length="70.01" shape="241.95,-536.57 321.81,-564.42">
        <lane id="11313_0" index="0" disallow="pedestrian tram rail_urban rail rail_electric rail_fast ship" speed="36.11" length="70.01" width="3.50" customShape="1" shape="255.49,-544.60 262.97,-545.93 267.39,-547.01 270.74,-548.15 273.96,-549.61 274.80,-550.16 275.84,-551.27 276.97,-552.28 278.28,-553.03 281.47,-554.57 286.60,-556.73 291.85,-558.56 297.68,-560.22 304.10,-561.67 312.56,-563.16 321.81,-564.42"/>
    </edge>
    <edge id="11314" from="33" to="39" priority="3" type="highway.residential" spreadType="center" length="70.00" shape="322.42,-560.97 243.10,-533.28">
        <lane id="11314_0" index="0" disallow="pedestrian tram rail_urban rail rail_electric rail_fast ship" speed="36.11" length="70.00" width="3.47" customShape="1" shape="322.42,-560.97 313.21,-559.71 304.81,-558.24 298.48,-556.81 292.73,-555.17 287.58,-553.36 282.55,-551.22 279.64,-549.83 278.49,-548.94 277.39,-547.89 276.21,-546.95 275.12,-546.29 271.69,-544.77 268.18,-543.60 263.63,-542.49 256.08,-541.15"/>
    </edge>
    <edge id="11337" from="38" to="16" priority="3" type="highway.residential" spreadType="center" length="70.00" shape="168.78,-631.45 94.31,-593.24">
        <lane id="11337_0" index="0" disallow="pedestrian tram rail_urban rail rail_electric rail_fast ship" speed="36.11" length="70.00" width="3.50" customShape="1" shape="152.89,-631.31 151.49,-630.83 148.72,-629.67 143.88,-627.06 138.78,-623.90 131.36,-618.79 121.48,-611.96 97.64,-595.41 94.31,-593.24"/>
    </edge>
    <edge id="11338" from="24" to="38" priority="3" type="highway.residential" spreadType="center" length="70.01" shape="93.18,-596.68 167.19,-634.57">
        <lane id="11338_0" index="0" disallow="pedestrian tram rail_urban rail rail_electric rail_fast ship" speed="36.11" length="70.01" width="3.50" customShape="1" shape="93.18,-596.68 95.78,-598.38 119.73,-615.01 129.67,-621.88 137.18,-627.03 142.40,-630.25 147.41,-632.92 150.32,-634.13 151.83,-634.64"/>
    </edge>
    <edge id="11532" from="40" to="32" priority="3" type="highway.residential" spreadType="center" length="69.99" shape="200.66,-698.69 280.59,-723.93">
        <lane id="11532_0" index="0" disallow="pedestrian tram rail_urban rail rail_electric rail_fast ship" speed="36.11" length="69.99" width="3.50" customShape="1" shape="215.61,-698.25 231.60,-705.01 238.25,-707.69 242.62,-709.14 249.58,-710.81 253.01,-711.85 258.73,-714.07 274.62,-721.15 280.59,-723.93"/>
    </edge>
    <edge id="11533" from="34" to="40" priority="3" type="highway.residential" spreadType="center" length="70.00" shape="281.89,-720.69 201.72,-695.36">
        <lane id="11533_0" index="0" disallow="pedestrian tram rail_urban rail rail_electric rail_fast ship" speed="36.11" length="70.00" width="3.50" customShape="1" shape="281.89,-720.69 281.42,-720.44 275.38,-717.67 259.60,-710.64 253.83,-708.43 250.33,-707.39 243.46,-705.75 239.27,-704.34 232.76,-701.70 216.91,-695.01"/>
    </edge>
    <edge id="11653" from="35" to="40" priority="3" type="highway.residential" spreadType="center" length="69.86" shape="174.05,-781.42 202.89,-697.57">
        <lane id="11653_0" index="0" disallow="pedestrian tram rail_urban rail rail_electric rail_fast ship" speed="36.11" length="69.86" width="3.50" customShape="1" shape="174.05,-781.42 177.21,-774.26 183.02,-760.25 187.72,-747.97 191.73,-736.52 195.22,-725.42 197.89,-715.83"/>
    </edge>
    <edge id="11654" from="40" to="31" priority="3" type="highway.residential" spreadType="center" length="70.00" shape="199.58,-696.44 170.59,-780.59">
        <lane id="11654_0" index="0" disallow="pedestrian tram rail_urban rail rail_electric rail_fast ship" speed="36.11" length="70.00" width="3.50" customShape="1" shape="194.52,-714.89 191.85,-724.48 188.39,-735.46 184.42,-746.81 179.76,-758.98 173.99,-772.88 170.59,-780.59"/>
    </edge>

    <junction id="10" type="dead_end" x="273.49" y="-619.67" incLanes="11138_0" intLanes="" shape="272.76,-621.26 274.22,-618.08" rightOfWay="edgePriority"/>
    <junction id="13" type="dead_end" x="275.16" y="-616.58" incLanes="" intLanes="" shape="274.43,-618.17 275.89,-614.99" rightOfWay="edgePriority"/>
    <junction id="16" type="dead_end" x="94.31" y="-593.24" incLanes="11337_0" intLanes="" shape="95.27,-591.77 93.36,-594.70" rightOfWay="edgePriority"/>
    <junction id="24" type="dead_end" x="93.18" y="-596.68" incLanes="" intLanes="" shape="94.14,-595.22 92.23,-598.15" rightOfWay="edgePriority"/>
    <junction id="25" type="dead_end" x="281.41" y="-484.21" incLanes="11289_0" intLanes="" shape="282.71,-485.38 280.10,-483.05" rightOfWay="edgePriority"/>
    <junction id="26" type="dead_end" x="321.81" y="-564.42" incLanes="11313_0" intLanes="" shape="321.57,-566.15 322.04,-562.68" rightOfWay="edgePriority"/>
    <junction id="31" type="dead_end" x="170.59" y="-780.59" incLanes="11654_0" intLanes="" shape="168.99,-779.88 172.19,-781.29" rightOfWay="edgePriority"/>
    <junction id="32" type="dead_end" x="280.59" y="-723.93" incLanes="11532_0" intLanes="" shape="279.85,-725.52 281.33,-722.35" rightOfWay="edgePriority"/>
    <junction id="33" type="dead_end" x="322.42" y="-560.97" incLanes="" intLanes="" shape="322.19,-562.68 322.65,-559.25" rightOfWay="edgePriority"/>
    <junction id="34" type="dead_end" x="281.89" y="-720.69" incLanes="" intLanes="" shape="281.07,-722.23 282.72,-719.15" rightOfWay="edgePriority"/>
    <junction id="35" type="dead_end" x="174.05" y="-781.42" incLanes="" intLanes="" shape="172.45,-780.71 175.65,-782.12" rightOfWay="edgePriority"/>
    <junction id="36" type="dead_end" x="278.79" y="-481.89" incLanes="" intLanes="" shape="280.09,-483.06 277.48,-480.73" rightOfWay="edgePriority"/>
    <junction id="37" type="priority" x="202.15" y="-577.60" incLanes="11293_0 11137_0 11295_0" intLanes=":37_0_0 :37_1_0 :37_2_0 :37_3_0 :37_4_0 :37_5_0" shape="207.27,-555.81 212.32,-560.66 208.71,-565.07 206.67,-569.17 206.22,-572.93 207.33,-576.37 210.03,-579.49 214.30,-582.27 211.08,-588.48 205.26,-585.87 200.17,-584.44 195.81,-584.19 192.19,-585.13 189.30,-587.26 187.14,-590.57 180.78,-587.65 184.75,-579.79 188.30,-574.35 191.89,-570.27 195.95,-566.52 200.93,-562.05">
        <request index="0" response="000000" foes="001000" cont="0"/>
        <request index="1" response="110000" foes="111000" cont="0"/>
        <request index="2" response="100000" foes="100000" cont="0"/>
        <request index="3" response="100011" foes="100011" cont="0"/>
        <request index="4" response="000000" foes="000010" cont="0"/>
        <request index="5" response="000000" foes="001110" cont="0"/>
    </junction>
    <junction id="38" type="priority" x="167.95" y="-632.99" incLanes="11296_0 11298_0 11338_0" intLanes=":38_0_0 :38_1_0 :38_2_0 :38_3_0 :38_4_0 :38_5_0" shape="170.44,-614.41 177.14,-616.41 175.32,-623.26 174.51,-628.56 174.69,-633.04 175.83,-637.46 177.90,-642.55 180.88,-649.06 174.52,-651.98 172.70,-648.98 170.05,-646.13 166.58,-643.44 162.28,-640.90 157.16,-638.51 151.21,-636.28 153.46,-629.65 157.08,-630.30 160.38,-629.67 163.37,-627.77 166.04,-624.59 168.39,-620.14">
        <request index="0" response="001000" foes="001000" cont="0"/>
        <request index="1" response="111000" foes="111000" cont="0"/>
        <request index="2" response="000000" foes="100000" cont="0"/>
        <request index="3" response="000000" foes="100011" cont="0"/>
        <request index="4" response="000000" foes="000010" cont="0"/>
        <request index="5" response="001100" foes="001110" cont="0"/>
    </junction>
    <junction id="39" type="priority" x="242.56" y="-534.93" incLanes="11290_0 11314_0 11292_0" intLanes=":39_0_0 :39_1_0 :39_2_0 :39_3_0 :39_4_0 :39_5_0" shape="247.61,-513.72 252.69,-518.54 249.34,-522.92 247.46,-527.31 247.14,-531.43 248.47,-535.02 251.53,-537.78 256.41,-539.45 255.19,-546.32 247.42,-545.15 240.70,-544.57 235.02,-544.59 230.40,-545.20 226.82,-546.40 224.28,-548.19 219.24,-543.35">
        <request index="0" response="000000" foes="001000" cont="0"/>
        <request index="1" response="110000" foes="111000" cont="0"/>
        <request index="2" response="100000" foes="100000" cont="0"/>
        <request index="3" response="100011" foes="100011" cont="0"/>
        <request index="4" response="000000" foes="000010" cont="0"/>
        <request index="5" response="000000" foes="001110" cont="0"/>
    </junction>
    <junction id="40" type="priority" x="201.23" y="-697.04" incLanes="11533_0 11653_0 11299_0" intLanes=":40_0_0 :40_1_0 :40_2_0 :40_3_0 :40_4_0 :40_5_0" shape="217.65,-693.42 214.93,-699.86 211.23,-699.07 208.12,-699.94 205.50,-702.30 203.26,-705.94 201.32,-710.67 199.58,-716.30 192.84,-714.42 194.56,-707.29 195.19,-701.81 194.78,-697.19 193.41,-692.65 191.13,-687.39 188.01,-680.64 194.38,-677.75 197.22,-682.97 200.11,-686.28 203.34,-688.33 207.16,-689.77 211.84,-691.25">
        <request index="0" response="000000" foes="001000" cont="0"/>
        <request index="1" response="110000" foes="111000" cont="0"/>
        <request index="2" response="100000" foes="100000" cont="0"/>
        <request index="3" response="100011" foes="100011" cont="0"/>
        <request index="4" response="000000" foes="000010" cont="0"/>
        <request index="5" response="000000" foes="001110" cont="0"/>
    </junction>

    <connection from="11137" to="11292" fromLane="0" toLane="0" contPos="-4.00" shape="213.55,-583.85 211.54,-582.67 209.63,-581.33 207.88,-579.79 207.08,-578.94 206.36,-578.02 205.72,-577.05 205.19,-576.01 204.77,-574.92 204.50,-573.78 204.37,-572.62 204.38,-571.46 204.53,-570.30 204.79,-569.16 205.15,-568.06 205.60,-566.98 206.71,-564.92 208.02,-562.99 210.26,-560.30 211.06,-559.44" via=":37_2_0" dir="r" state="m"/>