<?xml version="1.0" encoding="UTF-8"?>

<!-- generated on Fri Dec 18 16:04:36 2020 by Eclipse SUMO netconvert Version 1.8.0
<configuration xmlns:xsi="http://www.w3.org/2001/XMLSchema-instance" xsi:noNamespaceSchemaLocation="http://sumo.dlr.de/xsd/netconvertConfiguration.xsd">

    <input>
        <node-files value="./converted_scenarios/SUMO/DEU_Muc-26_1_I-1-1/nodes.net.xml"/>
        <edge-files value="./converted_scenarios/SUMO/DEU_Muc-26_1_I-1-1/edges.net.xml"/>
        <connection-files value="./converted_scenarios/SUMO/DEU_Muc-26_1_I-1-1/_connections.net.xml"/>
        <tllogic-files value="./converted_scenarios/SUMO/DEU_Muc-26_1_I-1-1/_tll.net.xml"/>
    </input>

    <output>
        <output-file value="./converted_scenarios/SUMO/DEU_Muc-26_1_I-1-1/DEU_Muc-26_1_I-1-1.net.xml"/>
    </output>

    <processing>
        <plain.extend-edge-shape value="true"/>
        <geometry.remove.keep-edges.explicit value="true"/>
        <geometry.avoid-overlap value="true"/>
        <offset.disable-normalization value="true"/>
    </processing>

    <junctions>
        <no-turnarounds value="true"/>
        <junctions.internal-link-detail value="20"/>
    </junctions>

    <report>
        <aggregate-warnings value="5"/>
    </report>

    <random_number>
        <seed value="1234"/>
    </random_number>

</configuration>
-->

<net version="1.6" junctionCornerDetail="5" junctionLinkDetail="20" limitTurnSpeed="5.50" xmlns:xsi="http://www.w3.org/2001/XMLSchema-instance" xsi:noNamespaceSchemaLocation="http://sumo.dlr.de/xsd/net_file.xsd">

    <location netOffset="0.00,0.00" convBoundary="-50.48,-49.34,87.66,107.89" origBoundary="-50.48,-49.34,87.66,107.89" projParameter="!"/>

    <edge id=":10_0" function="internal">
        <lane id=":10_0_0" index="0" disallow="bus truck rail_fast" speed="6.41" length="7.77" width="2.50" shape="-27.96,-32.51 -28.54,-32.91 -29.09,-33.27 -29.62,-33.61 -30.13,-33.92 -30.61,-34.20 -31.07,-34.45 -31.51,-34.67 -31.92,-34.86 -32.31,-35.03 -32.68,-35.16 -33.02,-35.26 -33.34,-35.34 -33.63,-35.39 -33.90,-35.40 -34.15,-35.39 -34.38,-35.35 -34.58,-35.28 -34.75,-35.18 -34.91,-35.05"/>
    </edge>
    <edge id=":10_1" function="internal">
        <lane id=":10_1_0" index="0" disallow="rail_fast" speed="36.11" length="8.89" width="2.50" shape="-27.96,-32.51 -35.26,-37.59"/>
    </edge>
    <edge id=":11_0" function="internal">
        <lane id=":11_0_0" index="0" disallow="rail_fast" speed="36.11" length="8.85" width="2.50" shape="-33.82,-39.63 -26.55,-34.57"/>
    </edge>
    <edge id=":11_1" function="internal">
        <lane id=":11_1_0" index="0" disallow="bus truck rail_fast" speed="10.07" length="9.52" width="2.50" shape="-35.45,-37.16 -35.02,-37.23 -34.58,-37.28 -34.14,-37.30 -33.70,-37.31 -33.25,-37.28 -32.80,-37.24 -32.34,-37.17 -31.88,-37.08 -31.42,-36.97 -30.95,-36.83 -30.48,-36.67 -30.00,-36.49 -29.52,-36.28 -29.04,-36.06 -28.55,-35.81 -28.06,-35.53 -27.56,-35.24 -27.06,-34.92 -26.55,-34.57"/>
    </edge>
    <edge id=":12_0" function="internal">
        <lane id=":12_0_0" index="0" disallow="rail_fast" speed="36.11" length="8.95" width="2.50" shape="20.01,-1.59 27.33,3.57"/>
    </edge>
    <edge id=":12_1" function="internal">
        <lane id=":12_1_0" index="0" disallow="bus truck rail_fast" speed="8.53" length="9.97" width="2.50" shape="20.01,-1.59 20.61,-1.15 21.18,-0.71 21.71,-0.27 22.21,0.16 22.67,0.59 23.10,1.01 23.49,1.43 23.85,1.85 24.18,2.27 24.47,2.68 24.72,3.09 24.94,3.49 25.13,3.89 25.28,4.29 25.39,4.68 25.47,5.07 25.52,5.46 25.53,5.84 25.51,6.22"/>
    </edge>
    <edge id=":13_0" function="internal">
        <lane id=":13_0_0" index="0" disallow="bus truck rail_fast" speed="36.11" length="5.92" width="2.50" shape="26.30,8.65 26.02,9.00 25.77,9.31 25.54,9.59 25.34,9.85 25.15,10.08 24.98,10.30 24.82,10.50 24.67,10.70 24.53,10.89 24.40,11.08 24.26,11.27 24.13,11.48 23.99,11.69 23.84,11.93 23.69,12.18 23.52,12.47 23.34,12.78 23.14,13.12 22.92,13.51"/>
    </edge>
    <edge id=":13_1" function="internal">
        <lane id=":13_1_0" index="0" disallow="bus truck rail_fast" speed="16.92" length="7.64" width="2.50" shape="25.49,6.42 25.43,6.98 25.37,7.49 25.30,7.94 25.24,8.36 25.17,8.74 25.09,9.08 25.01,9.41 24.91,9.71 24.81,10.00 24.70,10.28 24.57,10.56 24.43,10.85 24.27,11.15 24.10,11.46 23.91,11.80 23.69,12.17 23.46,12.57 23.20,13.02 22.92,13.51"/>
    </edge>
    <edge id=":16_0" function="internal">
        <lane id=":16_0_0" index="0" disallow="bus truck rail_fast" speed="7.41" length="6.71" width="2.50" shape="20.85,12.10 21.15,11.57 21.43,11.06 21.69,10.58 21.93,10.11 22.15,9.68 22.35,9.26 22.53,8.87 22.70,8.50 22.84,8.15 22.97,7.83 23.08,7.53 23.17,7.25 23.24,6.99 23.29,6.76 23.32,6.55 23.34,6.37 23.33,6.21 23.31,6.07 23.26,5.95"/>
    </edge>
    <edge id=":16_1" function="internal">
        <lane id=":16_1_0" index="0" disallow="bus truck rail_fast" speed="9.00" length="7.53" width="2.50" shape="20.85,12.10 21.15,11.58 21.44,11.09 21.73,10.62 22.01,10.18 22.29,9.77 22.56,9.37 22.83,9.01 23.10,8.67 23.36,8.35 23.62,8.06 23.87,7.79 24.11,7.54 24.36,7.33 24.59,7.13 24.83,6.96 25.06,6.82 25.28,6.70 25.50,6.61 25.72,6.54"/>
    </edge>
    <edge id=":17_0" function="internal">
        <lane id=":17_0_0" index="0" disallow="bus truck rail_fast" speed="23.58" length="7.29" width="2.50" shape="-37.80,-37.97 -38.14,-38.40 -38.44,-38.78 -38.71,-39.13 -38.96,-39.45 -39.19,-39.74 -39.41,-40.00 -39.62,-40.24 -39.82,-40.47 -40.02,-40.68 -40.23,-40.88 -40.45,-41.08 -40.68,-41.28 -40.92,-41.48 -41.19,-41.68 -41.49,-41.89 -41.82,-42.12 -42.19,-42.37 -42.60,-42.64 -43.06,-42.93"/>
    </edge>
    <edge id=":17_1" function="internal">
        <lane id=":17_1_0" index="0" disallow="rail_fast" speed="36.11" length="9.25" width="2.50" shape="-35.42,-37.70 -43.06,-42.93"/>
    </edge>
    <edge id=":2_0" function="internal">
        <lane id=":2_0_0" index="0" disallow="bus truck rail_fast" speed="6.31" length="6.66" width="2.50" shape="-40.76,-32.06 -40.65,-32.21 -40.50,-32.42 -40.32,-32.67 -40.12,-32.96 -39.89,-33.28 -39.65,-33.62 -39.40,-33.99 -39.15,-34.37 -38.90,-34.75 -38.65,-35.14 -38.42,-35.53 -38.21,-35.91 -38.02,-36.27 -37.85,-36.61 -37.73,-36.93 -37.64,-37.21 -37.60,-37.46 -37.61,-37.66 -37.68,-37.81"/>
    </edge>
    <edge id=":2_1" function="internal">
        <lane id=":2_1_0" index="0" disallow="bus truck rail_fast" speed="9.15" length="7.58" width="2.50" shape="-40.76,-32.06 -40.46,-32.51 -40.19,-32.94 -39.95,-33.35 -39.74,-33.73 -39.55,-34.09 -39.37,-34.43 -39.20,-34.75 -39.03,-35.05 -38.85,-35.32 -38.67,-35.58 -38.47,-35.82 -38.25,-36.04 -38.00,-36.24 -37.72,-36.43 -37.41,-36.59 -37.05,-36.75 -36.64,-36.89 -36.17,-37.01 -35.65,-37.13"/>
    </edge>
    <edge id=":20_0" function="internal">
        <lane id=":20_0_0" index="0" disallow="rail_fast" speed="36.11" length="9.31" width="2.50" shape="-41.66,-45.01 -33.98,-39.74"/>
    </edge>
    <edge id=":20_1" function="internal">
        <lane id=":20_1_0" index="0" disallow="bus truck rail_fast" speed="7.78" length="10.45" width="2.50" shape="-41.66,-45.01 -40.95,-44.54 -40.28,-44.08 -39.66,-43.62 -39.07,-43.17 -38.54,-42.73 -38.04,-42.29 -37.59,-41.86 -37.19,-41.44 -36.83,-41.02 -36.51,-40.61 -36.23,-40.21 -36.00,-39.81 -35.81,-39.42 -35.67,-39.03 -35.57,-38.66 -35.51,-38.28 -35.50,-37.92 -35.53,-37.56 -35.60,-37.21"/>
    </edge>
    <edge id=":3_0" function="internal">
        <lane id=":3_0_0" index="0" disallow="bus truck rail_fast" speed="36.11" length="5.92" width="2.50" shape="-35.05,-34.91 -35.36,-34.60 -35.64,-34.31 -35.90,-34.06 -36.13,-33.83 -36.34,-33.61 -36.53,-33.41 -36.71,-33.23 -36.87,-33.05 -37.03,-32.87 -37.18,-32.69 -37.34,-32.51 -37.49,-32.32 -37.65,-32.12 -37.81,-31.90 -37.99,-31.65 -38.18,-31.39 -38.38,-31.09 -38.61,-30.77 -38.86,-30.40"/>
    </edge>
    <edge id=":3_1" function="internal">
        <lane id=":3_1_0" index="0" disallow="bus truck rail_fast" speed="23.92" length="7.42" width="2.50" shape="-35.66,-37.02 -35.80,-36.49 -35.94,-36.01 -36.07,-35.57 -36.19,-35.18 -36.31,-34.83 -36.42,-34.50 -36.54,-34.20 -36.66,-33.92 -36.78,-33.65 -36.91,-33.38 -37.06,-33.12 -37.21,-32.86 -37.38,-32.58 -37.57,-32.29 -37.78,-31.98 -38.01,-31.64 -38.27,-31.27 -38.55,-30.86 -38.86,-30.40"/>
    </edge>
    <edge id=":6_0" function="internal">
        <lane id=":6_0_0" index="0" disallow="bus truck rail_fast" speed="6.22" length="7.94" width="2.50" shape="33.50,10.95 32.90,10.54 32.33,10.17 31.78,9.82 31.25,9.51 30.75,9.22 30.28,8.97 29.83,8.75 29.40,8.56 29.01,8.40 28.63,8.27 28.29,8.17 27.96,8.10 27.67,8.07 27.40,8.06 27.15,8.09 26.93,8.14 26.73,8.23 26.57,8.35 26.42,8.50"/>
    </edge>
    <edge id=":6_1" function="internal">
        <lane id=":6_1_0" index="0" disallow="rail_fast" speed="36.11" length="9.03" width="2.50" shape="33.50,10.95 26.11,5.77"/>
    </edge>
    <edge id=":7_0" function="internal">
        <lane id=":7_0_0" index="0" disallow="rail_fast" speed="36.11" length="9.05" width="2.50" shape="27.49,3.69 34.90,8.88"/>
    </edge>
    <edge id=":7_1" function="internal">
        <lane id=":7_1_0" index="0" disallow="bus truck rail_fast" speed="9.56" length="9.60" width="2.50" shape="25.91,6.49 26.33,6.39 26.76,6.32 27.19,6.27 27.63,6.24 28.08,6.24 28.53,6.27 28.98,6.32 29.45,6.40 29.91,6.50 30.39,6.62 30.86,6.77 31.35,6.95 31.84,7.15 32.34,7.38 32.84,7.63 33.35,7.90 33.86,8.20 34.38,8.53 34.90,8.88"/>
    </edge>
    <edge id=":9_0" function="internal">
        <lane id=":9_0_0" index="0" disallow="bus truck rail_fast" speed="13.48" length="7.23" width="2.50" shape="23.17,5.77 22.93,5.29 22.72,4.86 22.51,4.48 22.32,4.13 22.14,3.81 21.96,3.52 21.79,3.26 21.61,3.01 21.43,2.79 21.23,2.57 21.03,2.36 20.81,2.16 20.57,1.95 20.31,1.73 20.02,1.51 19.70,1.27 19.34,1.01 18.95,0.72 18.52,0.41"/>
    </edge>
    <edge id=":9_1" function="internal">
        <lane id=":9_1_0" index="0" disallow="rail_fast" speed="36.11" length="9.09" width="2.50" shape="25.94,5.66 18.52,0.41"/>
    </edge>

    <edge id="51" from="1" to="2" priority="1" spreadType="center" length="20.79">
        <lane id="51_0" index="0" disallow="bus truck rail_fast" speed="36.11" length="20.79" width="2.50" customShape="1" shape="-50.48,-15.55 -49.43,-17.93 -47.83,-21.20 -44.86,-26.09 -40.76,-32.06"/>
    </edge>
    <edge id="52" from="3" to="4" priority="1" spreadType="center" length="20.31">
        <lane id="52_0" index="0" disallow="bus truck rail_fast" speed="36.11" length="20.31" width="2.50" customShape="1" shape="-38.86,-30.40 -42.73,-24.78 -45.63,-20.02 -47.17,-16.86 -48.20,-14.53"/>
    </edge>
    <edge id="53" from="5" to="6" priority="1" spreadType="center" length="65.84">
        <lane id="53_0" index="0" disallow="rail_fast" speed="36.11" length="65.84" width="2.50" customShape="1" shape="86.24,47.21 59.12,28.56 33.50,10.95"/>
    </edge>
    <edge id="54" from="7" to="8" priority="1" spreadType="center" length="65.86">
        <lane id="54_0" index="0" disallow="rail_fast" speed="36.11" length="65.86" width="2.50" customShape="1" shape="34.90,8.88 60.53,26.50 87.66,45.15"/>
    </edge>
    <edge id="55" from="9" to="10" priority="1" spreadType="center" length="60.33">
        <lane id="55_0" index="0" disallow="rail_fast" speed="36.11" length="60.33" width="2.50" customShape="1" shape="18.52,0.41 -6.28,-17.39 -27.96,-32.51"/>
    </edge>
    <edge id="56" from="11" to="12" priority="1" spreadType="center" length="60.42">
        <lane id="56_0" index="0" disallow="rail_fast" speed="36.11" length="60.42" width="2.50" customShape="1" shape="-26.55,-34.57 -4.84,-19.44 20.01,-1.59"/>
    </edge>
    <edge id="57" from="13" to="14" priority="1" spreadType="center" length="110.18">
        <lane id="57_0" index="0" disallow="rail_fast" speed="36.11" length="110.18" width="2.50" customShape="1" shape="22.92,13.51 -3.36,59.94 -30.49,107.89"/>
    </edge>
    <edge id="58" from="15" to="16" priority="1" spreadType="center" length="110.18">
        <lane id="58_0" index="0" disallow="rail_fast" speed="36.11" length="110.18" width="2.50" customShape="1" shape="-32.67,106.65 -5.53,58.71 20.85,12.10"/>
    </edge>
    <edge id="59" from="17" to="18" priority="1" spreadType="center" length="9.69">
        <lane id="59_0" index="0" disallow="rail_fast" speed="36.11" length="9.69" width="2.50" customShape="1" shape="-43.06,-42.93 -45.67,-44.61 -49.75,-47.24"/>
    </edge>
    <edge id="60" from="19" to="20" priority="1" spreadType="center" length="9.77">
        <lane id="60_0" index="0" disallow="rail_fast" speed="36.11" length="9.77" width="2.50" customShape="1" shape="-48.40,-49.34 -44.31,-46.71 -41.66,-45.01"/>
    </edge>
    <edge id="61" from="12" to="13" priority="1" spreadType="center" length="14.40">
        <lane id="61_0" index="0" disallow="bus truck rail_fast" speed="36.11" length="14.40" width="2.50" customShape="1" shape="25.51,6.22 25.49,6.42"/>
    </edge>
    <edge id="62" from="2" to="11" priority="1" spreadType="center" length="13.83">
        <lane id="62_0" index="0" disallow="bus truck rail_fast" speed="36.11" length="13.83" width="2.50" customShape="1" shape="-35.65,-37.13 -35.45,-37.16"/>
    </edge>
    <edge id="63" from="6" to="13" priority="1" spreadType="center" length="9.90">
        <lane id="63_0" index="0" disallow="bus truck rail_fast" speed="36.11" length="9.90" width="2.50" customShape="1" shape="26.42,8.50 26.30,8.65"/>
    </edge>
    <edge id="64" from="10" to="3" priority="1" spreadType="center" length="9.89">
        <lane id="64_0" index="0" disallow="bus truck rail_fast" speed="36.11" length="9.89" width="2.50" customShape="1" shape="-34.91,-35.05 -35.05,-34.91"/>
    </edge>
    <edge id="65" from="20" to="3" priority="1" spreadType="center" length="14.24">
        <lane id="65_0" index="0" disallow="bus truck rail_fast" speed="36.11" length="14.24" width="2.50" customShape="1" shape="-35.60,-37.21 -35.66,-37.02"/>
    </edge>
    <edge id="66" from="10" to="17" priority="1" spreadType="center" length="14.89">
        <lane id="66_0" index="0" disallow="rail_fast" speed="36.11" length="14.89" width="2.50" customShape="1" shape="-35.26,-37.59 -35.42,-37.70"/>
    </edge>
    <edge id="67" from="12" to="7" priority="1" spreadType="center" length="14.74">
        <lane id="67_0" index="0" disallow="rail_fast" speed="36.11" length="14.74" width="2.50" customShape="1" shape="27.33,3.57 27.49,3.69"/>
    </edge>
    <edge id="68" from="16" to="7" priority="1" spreadType="center" length="14.10">
        <lane id="68_0" index="0" disallow="bus truck rail_fast" speed="36.11" length="14.10" width="2.50" customShape="1" shape="25.72,6.54 25.91,6.49"/>
    </edge>
    <edge id="69" from="6" to="9" priority="1" spreadType="center" length="14.83">
        <lane id="69_0" index="0" disallow="rail_fast" speed="36.11" length="14.83" width="2.50" customShape="1" shape="26.11,5.77 25.94,5.66"/>
    </edge>
    <edge id="70" from="20" to="11" priority="1" spreadType="center" length="14.89">
        <lane id="70_0" index="0" disallow="rail_fast" speed="36.11" length="14.89" width="2.50" customShape="1" shape="-33.98,-39.74 -33.82,-39.63"/>
    </edge>
    <edge id="71" from="16" to="9" priority="1" spreadType="center" length="10.73">
        <lane id="71_0" index="0" disallow="bus truck rail_fast" speed="36.11" length="10.73" width="2.50" customShape="1" shape="23.26,5.95 23.17,5.77"/>
    </edge>
    <edge id="72" from="2" to="17" priority="1" spreadType="center" length="10.23">
        <lane id="72_0" index="0" disallow="bus truck rail_fast" speed="36.11" length="10.23" width="2.50" customShape="1" shape="-37.68,-37.81 -37.80,-37.97"/>
    </edge>

    <junction id="1" type="dead_end" x="-50.48" y="-15.55" incLanes="" intLanes="" shape="-49.34,-15.05 -51.62,-16.05"/>
    <junction id="10" type="priority" x="-29.37" y="-33.49" incLanes="55_0" intLanes=":10_0_0 :10_1_0" shape="-28.67,-31.48 -27.25,-33.53 -34.96,-38.90 -36.39,-36.85 -35.87,-36.29 -35.82,-35.99 -35.90,-35.69 -36.12,-35.39 -36.48,-35.08 -37.03,-30.90">
        <request index="0" response="00" foes="00" cont="0"/>
        <request index="1" response="00" foes="00" cont="0"/>
    </junction>
    <junction id="11" type="priority" x="-27.97" y="-35.56" incLanes="70_0 62_0" intLanes=":11_0_0 :11_1_0" shape="-27.27,-33.55 -25.84,-35.60 -34.50,-41.62 -35.92,-39.57 -35.44,-39.06 -35.41,-38.82 -35.51,-38.58 -35.76,-38.36 -36.15,-38.15 -37.17,-34.55 -34.52,-35.99 -32.95,-36.04 -31.22,-35.65 -29.33,-34.82">
        <request index="0" response="00" foes="10" cont="0"/>
        <request index="1" response="01" foes="01" cont="0"/>
    </junction>
    <junction id="12" type="priority" x="21.34" y="-0.64" incLanes="56_0" intLanes=":12_0_0 :12_1_0" shape="23.95,8.32 26.70,6.11 26.77,5.35 26.92,5.18 27.14,5.13 27.44,5.22 27.81,5.44 29.25,3.40 20.74,-2.60 19.28,-0.57 21.05,0.85 22.42,2.29 23.39,3.76 23.97,5.26 24.16,6.78">
        <request index="0" response="00" foes="00" cont="0"/>
        <request index="1" response="00" foes="00" cont="0"/>
    </junction>
    <junction id="13" type="priority" x="23.78" y="12.00" incLanes="63_0 61_0" intLanes=":13_0_0 :13_1_0" shape="30.67,10.57 28.28,7.37 27.44,7.21 27.14,7.01 26.91,6.74 26.76,6.39 26.69,5.97 23.99,4.81 24.10,6.98 23.85,8.27 23.39,9.68 22.72,11.22 21.84,12.89 24.01,14.12 26.17,11.21 27.28,10.40 28.39,10.03 29.52,10.08">
        <request index="0" response="00" foes="10" cont="0"/>
        <request index="1" response="01" foes="01" cont="0"/>
    </junction>
    <junction id="14" type="dead_end" x="-30.49" y="107.89" incLanes="57_0" intLanes="" shape="-29.40,108.50 -31.58,107.27"/>
    <junction id="15" type="dead_end" x="-32.67" y="106.65" incLanes="" intLanes="" shape="-31.58,107.27 -33.75,106.04"/>
    <junction id="16" type="priority" x="21.61" y="10.76" incLanes="58_0" intLanes=":16_0_0 :16_1_0" shape="27.91,7.31 25.45,5.32 24.71,5.39 24.42,5.30 24.19,5.14 24.01,4.91 23.89,4.59 20.55,3.66 21.50,5.58 21.52,6.79 21.23,8.18 20.65,9.74 19.76,11.48 21.94,12.71 23.97,9.70 24.97,8.65 25.96,7.90 26.94,7.45">
        <request index="0" response="00" foes="00" cont="0"/>
        <request index="1" response="00" foes="00" cont="0"/>
    </junction>
    <junction id="17" type="priority" x="-41.60" y="-42.00" incLanes="72_0 66_0" intLanes=":17_0_0 :17_1_0" shape="-41.13,-33.69 -37.34,-35.68 -36.97,-36.44 -36.72,-36.63 -36.43,-36.68 -36.10,-36.60 -35.72,-36.38 -34.29,-38.44 -42.38,-43.98 -43.73,-41.88">
        <request index="0" response="00" foes="10" cont="0"/>
        <request index="1" response="01" foes="01" cont="0"/>
    </junction>
    <junction id="18" type="dead_end" x="-49.75" y="-47.24" incLanes="59_0" intLanes="" shape="-50.43,-46.19 -49.08,-48.29"/>
    <junction id="19" type="dead_end" x="-48.40" y="-49.34" incLanes="" intLanes="" shape="-49.08,-48.29 -47.73,-50.39"/>
    <junction id="2" type="priority" x="-39.86" y="-33.36" incLanes="51_0" intLanes=":2_0_0 :2_1_0" shape="-33.47,-36.23 -35.69,-38.35 -36.38,-38.22 -36.69,-38.31 -36.97,-38.51 -37.23,-38.80 -37.47,-39.20 -41.23,-40.13 -40.08,-38.17 -40.00,-37.00 -40.26,-35.71 -40.86,-34.30 -41.79,-32.77 -39.73,-31.35 -37.49,-34.14 -36.43,-35.10 -35.40,-35.77 -34.42,-36.15">
        <request index="0" response="00" foes="00" cont="0"/>
        <request index="1" response="00" foes="00" cont="0"/>
    </junction>
    <junction id="20" type="priority" x="-40.19" y="-44.06" incLanes="60_0" intLanes=":20_0_0 :20_1_0" shape="-37.63,-34.79 -34.58,-37.04 -34.40,-37.80 -34.22,-37.99 -33.98,-38.04 -33.67,-37.96 -33.30,-37.75 -31.88,-39.80 -40.98,-46.06 -42.34,-43.95 -40.29,-42.47 -38.74,-40.96 -37.71,-39.44 -37.18,-37.91 -37.15,-36.36">
        <request index="0" response="00" foes="00" cont="0"/>
        <request index="1" response="00" foes="00" cont="0"/>
    </junction>
    <junction id="3" type="priority" x="-37.82" y="-31.92" incLanes="64_0 65_0" intLanes=":3_0_0 :3_1_0" shape="-30.74,-32.87 -32.86,-36.16 -33.83,-36.39 -34.16,-36.62 -34.39,-36.94 -34.51,-37.33 -34.54,-37.80 -37.41,-39.16 -37.12,-37.11 -37.39,-35.85 -37.95,-34.43 -38.78,-32.85 -39.89,-31.11 -37.83,-29.69 -35.42,-32.40 -34.24,-33.14 -33.06,-33.46 -31.90,-33.37">
        <request index="0" response="00" foes="10" cont="0"/>
        <request index="1" response="01" foes="01" cont="0"/>
    </junction>
    <junction id="4" type="dead_end" x="-48.20" y="-14.53" incLanes="52_0" intLanes="" shape="-47.05,-14.03 -49.34,-15.03"/>
    <junction id="5" type="dead_end" x="86.24" y="47.21" incLanes="" intLanes="" shape="86.95,46.18 85.53,48.24"/>
    <junction id="6" type="priority" x="31.99" y="9.91" incLanes="53_0" intLanes=":6_0_0 :6_1_0" shape="32.80,11.98 34.21,9.92 26.58,4.58 25.14,6.62 25.66,7.21 25.69,7.50 25.60,7.82 25.38,8.16 25.04,8.52 24.71,12.86">
        <request index="0" response="00" foes="00" cont="0"/>
        <request index="1" response="00" foes="00" cont="0"/>
    </junction>
    <junction id="7" type="priority" x="33.39" y="7.84" incLanes="67_0 68_0" intLanes=":7_0_0 :7_1_0" shape="34.19,9.91 35.61,7.85 27.00,1.82 25.56,3.86 26.02,4.37 26.05,4.63 25.94,4.88 25.69,5.14 25.31,5.40 24.38,9.10 27.13,7.69 28.70,7.62 30.40,7.96 32.23,8.72">
        <request index="0" response="00" foes="10" cont="0"/>
        <request index="1" response="01" foes="01" cont="0"/>
    </junction>
    <junction id="8" type="dead_end" x="87.66" y="45.15" incLanes="54_0" intLanes="" shape="88.36,44.12 86.95,46.18"/>
    <junction id="9" type="priority" x="19.86" y="1.38" incLanes="71_0 69_0" intLanes=":9_0_0 :9_1_0" shape="20.78,9.63 24.09,7.53 24.32,6.78 24.52,6.60 24.78,6.55 25.10,6.63 25.47,6.85 26.91,4.81 19.25,-0.60 17.79,1.43 19.33,2.71 20.46,4.02 21.16,5.37 21.45,6.75 21.33,8.17">
        <request index="0" response="00" foes="10" cont="0"/>
        <request index="1" response="01" foes="01" cont="0"/>
    </junction>

    <connection from="51" to="72" fromLane="0" toLane="0" contPos="-4.00" via=":2_0_0" dir="s" state="M"/>
    <connection from="51" to="62" fromLane="0" toLane="0" contPos="-4.00" via=":2_1_0" dir="l" state="M"/>
    <connection from="53" to="63" fromLane="0" toLane="0" contPos="-4.00" via=":6_0_0" dir="r" state="M"/>
    <connection from="53" to="69" fromLane="0" toLane="0" contPos="-4.00" via=":6_1_0" dir="s" state="M"/>
    <connection from="55" to="64" fromLane="0" toLane="0" contPos="-4.00" via=":10_0_0" dir="r" state="M"/>
    <connection from="55" to="66" fromLane="0" toLane="0" contPos="-4.00" via=":10_1_0" dir="s" state="M"/>
    <connection from="56" to="67" fromLane="0" toLane="0" contPos="-4.00" via=":12_0_0" dir="s" state="M"/>
    <connection from="56" to="61" fromLane="0" toLane="0" contPos="-4.00" via=":12_1_0" dir="L" state="M"/>
    <connection from="58" to="71" fromLane="0" toLane="0" contPos="-4.00" via=":16_0_0" dir="s" state="M"/>
    <connection from="58" to="68" fromLane="0" toLane="0" contPos="-4.00" via=":16_1_0" dir="l" state="M"/>
    <connection from="60" to="70" fromLane="0" toLane="0" contPos="-4.00" via=":20_0_0" dir="s" state="M"/>
    <connection from="60" to="65" fromLane="0" toLane="0" contPos="-4.00" via=":20_1_0" dir="l" state="M"/>
    <connection from="61" to="57" fromLane="0" toLane="0" contPos="-4.00" via=":13_1_0" dir="s" state="m"/>
    <connection from="62" to="56" fromLane="0" toLane="0" contPos="-4.00" via=":11_1_0" dir="l" state="m"/>
    <connection from="63" to="57" fromLane="0" toLane="0" contPos="-4.00" via=":13_0_0" dir="r" state="M"/>
    <connection from="64" to="52" fromLane="0" toLane="0" contPos="-4.00" via=":3_0_0" dir="r" state="M"/>
    <connection from="65" to="52" fromLane="0" toLane="0" contPos="-4.00" via=":3_1_0" dir="s" state="m"/>
    <connection from="66" to="59" fromLane="0" toLane="0" contPos="-4.00" via=":17_1_0" dir="s" state="m"/>
    <connection from="67" to="54" fromLane="0" toLane="0" contPos="-4.00" via=":7_0_0" dir="s" state="M"/>
    <connection from="68" to="54" fromLane="0" toLane="0" contPos="-4.00" via=":7_1_0" dir="l" state="m"/>
    <connection from="69" to="55" fromLane="0" toLane="0" contPos="-4.00" via=":9_1_0" dir="s" state="m"/>
    <connection from="70" to="56" fromLane="0" toLane="0" contPos="-4.00" via=":11_0_0" dir="s" state="M"/>
    <connection from="71" to="55" fromLane="0" toLane="0" contPos="-4.00" via=":9_0_0" dir="r" state="M"/>
    <connection from="72" to="59" fromLane="0" toLane="0" contPos="-4.00" via=":17_0_0" dir="r" state="M"/>

    <connection from=":10_0" to="64" fromLane="0" toLane="0" dir="r" state="M"/>
    <connection from=":10_1" to="66" fromLane="0" toLane="0" dir="s" state="M"/>
    <connection from=":11_0" to="56" fromLane="0" toLane="0" dir="s" state="M"/>
    <connection from=":11_1" to="56" fromLane="0" toLane="0" dir="l" state="M"/>
    <connection from=":12_0" to="67" fromLane="0" toLane="0" dir="s" state="M"/>
    <connection from=":12_1" to="61" fromLane="0" toLane="0" dir="L" state="M"/>
    <connection from=":13_0" to="57" fromLane="0" toLane="0" dir="r" state="M"/>
    <connection from=":13_1" to="57" fromLane="0" toLane="0" dir="s" state="M"/>
    <connection from=":16_0" to="71" fromLane="0" toLane="0" dir="s" state="M"/>
    <connection from=":16_1" to="68" fromLane="0" toLane="0" dir="l" state="M"/>
    <connection from=":17_0" to="59" fromLane="0" toLane="0" dir="r" state="M"/>
    <connection from=":17_1" to="59" fromLane="0" toLane="0" dir="s" state="M"/>
    <connection from=":2_0" to="72" fromLane="0" toLane="0" dir="s" state="M"/>
    <connection from=":2_1" to="62" fromLane="0" toLane="0" dir="l" state="M"/>
    <connection from=":20_0" to="70" fromLane="0" toLane="0" dir="s" state="M"/>
    <connection from=":20_1" to="65" fromLane="0" toLane="0" dir="l" state="M"/>
    <connection from=":3_0" to="52" fromLane="0" toLane="0" dir="r" state="M"/>
    <connection from=":3_1" to="52" fromLane="0" toLane="0" dir="s" state="M"/>
    <connection from=":6_0" to="63" fromLane="0" toLane="0" dir="r" state="M"/>
    <connection from=":6_1" to="69" fromLane="0" toLane="0" dir="s" state="M"/>
    <connection from=":7_0" to="54" fromLane="0" toLane="0" dir="s" state="M"/>
    <connection from=":7_1" to="54" fromLane="0" toLane="0" dir="l" state="M"/>
    <connection from=":9_0" to="55" fromLane="0" toLane="0" dir="r" state="M"/>
    <connection from=":9_1" to="55" fromLane="0" toLane="0" dir="s" state="M"/>

</net>
