<routes>
	<vehicle depart="0.1" departLane="0" departPos="0" departSpeed="7.0582" id="32" type="passenger">
		<route edges="54"/>
	</vehicle>
	<vehicle depart="0.1" departLane="0" departPos="85.08297096080486" departSpeed="0.0" id="34" type="passenger">
		<route edges="58 71 55 64 52"/>
	</vehicle>
	<vehicle depart="0.1" departLane="0" departPos="0" departSpeed="6.3936" id="35" type="passenger">
		<route edges="67 54"/>
	</vehicle>
	<vehicle depart="0.1" departLane="0" departPos="51.971452098196394" departSpeed="5.6535" id="36" type="passenger">
		<route edges="56 61 57"/>
	</vehicle>
	<vehicle depart="0.1" departLane="0" departPos="14.817231487811345" departSpeed="2.5717" id="312" type="passenger">
		<route edges="52"/>
	</vehicle>
	<vehicle depart="0.1" departLane="0" departPos="77.58147345043123" departSpeed="0.0" id="313" type="passenger">
		<route edges="58 71 55 64 52"/>
	</vehicle>
	<vehicle depart="0.1" departLane="0" departPos="70.07993816711276" departSpeed="0.0" id="314" type="passenger">
		<route edges="58 71 55 64 52"/>
	</vehicle>
	<vehicle depart="0.1" departLane="0" departPos="107.58741422877094" departSpeed="0.0" id="315" type="passenger">
		<route edges="58 71 55 64 52"/>
	</vehicle>
	<vehicle depart="0.1" departLane="0" departPos="62.578440656937154" departSpeed="0.0" id="317" type="passenger">
		<route edges="58 71 55 64 52"/>
	</vehicle>
	<vehicle depart="0.1" departLane="0" departPos="0" departSpeed="2.4691" id="318" type="passenger">
		<route edges="52"/>
	</vehicle>
	<vehicle depart="0.1" departLane="0" departPos="0" departSpeed="0.0" id="319" type="passenger">
		<route edges="58 71 55 64 52"/>
	</vehicle>
	<vehicle depart="0.1" departLane="0" departPos="90.89839680744205" departSpeed="7.2616" id="320" type="passenger">
		<route edges="57"/>
	</vehicle>
	<vehicle depart="0.1" departLane="0" departPos="0" departSpeed="0.0" id="322" type="passenger">
		<route edges="58 71 55 64 52"/>
	</vehicle>
	<vehicle depart="0.1" departLane="0" departPos="76.02807313416452" departSpeed="7.2355" id="323" type="passenger">
		<route edges="57"/>
	</vehicle>
	<vehicle depart="0.1" departLane="0" departPos="100.08591672081594" departSpeed="0.0" id="324" type="passenger">
		<route edges="58 71 55 64 52"/>
	</vehicle>
	<vehicle depart="0.1" departLane="0" departPos="0" departSpeed="0.0001" id="325" type="passenger">
		<route edges="58 71 55 64 52"/>
	</vehicle>
	<vehicle depart="0.1" departLane="0" departPos="0" departSpeed="4.3945" id="326" type="passenger">
		<route edges="64 52"/>
	</vehicle>
	<vehicle depart="0.1" departLane="0" departPos="59.55005827079353" departSpeed="7.8535" id="327" type="passenger">
		<route edges="57"/>
	</vehicle>
	<vehicle depart="0.1" departLane="0" departPos="0" departSpeed="0.0003" id="328" type="passenger">
		<route edges="58 71 55 64 52"/>
	</vehicle>
	<vehicle depart="0.1" departLane="0" departPos="0" departSpeed="0.0009" id="329" type="passenger">
		<route edges="58 71 55 64 52"/>
	</vehicle>
	<vehicle depart="0.1" departLane="0" departPos="0" departSpeed="6.8678" id="330" type="passenger">
		<route edges="57"/>
	</vehicle>
	<vehicle depart="0.1" departLane="0" departPos="0" departSpeed="0.0028" id="331" type="passenger">
		<route edges="58 71 55 64 52"/>
	</vehicle>
	<vehicle depart="0.1" departLane="0" departPos="0" departSpeed="8.5234" id="332" type="passenger">
		<route edges="57"/>
	</vehicle>
	<vehicle depart="0.1" departLane="0" departPos="92.58446846875984" departSpeed="0.0" id="333" type="passenger">
		<route edges="58 71 55 64 52"/>
	</vehicle>
	<vehicle depart="0.1" departLane="0" departPos="0" departSpeed="0.0074" id="334" type="passenger">
		<route edges="58 71 55 64 52"/>
	</vehicle>
	<vehicle depart="0.1" departLane="0" departPos="0" departSpeed="2.5776" id="335" type="passenger">
		<route edges="56 67 54"/>
	</vehicle>
	<vehicle depart="0.1" departLane="0" departPos="6.611966575695389" departSpeed="5.1283" id="336" type="passenger">
		<route edges="62 56 61 57"/>
	</vehicle>
	<vehicle depart="0.1" departLane="0" departPos="20.787058552300117" departSpeed="3.1951" id="337" type="passenger">
		<route edges="51 62 56 67 54"/>
	</vehicle>
	<vehicle depart="0.1" departLane="0" departPos="0" departSpeed="2.433" id="338" type="passenger">
		<route edges="51 62 56 67 54"/>
	</vehicle>
</routes>
