<!-- generated on 2020-12-18 16:04:36.647069 by ipykernel_launcher.py v1_2_0+5214-53edc58fcd
-->
<nodes>
	<node id="1" type="from" x="-50.4791" y="-15.549700000000001"/>
	<node id="2" type="to" x="-39.8605" y="-33.3612"/>
	<node id="3" type="from" x="-37.81705" y="-31.92305"/>
	<node id="4" type="to" x="-48.1969" y="-14.5292"/>
	<node id="5" type="from" x="86.23845" y="47.21195"/>
	<node id="6" type="to" x="31.9887" y="9.9072"/>
	<node id="7" type="from" x="33.389799999999994" y="7.8374"/>
	<node id="8" type="to" x="87.655" y="45.152"/>
	<node id="9" type="from" x="19.86075" y="1.37905"/>
	<node id="10" type="to" x="-29.3711" y="-33.49235"/>
	<node id="11" type="from" x="-27.96585" y="-35.559349999999995"/>
	<node id="12" type="to" x="21.33515" y="-0.63925"/>
	<node id="13" type="from" x="23.7789" y="11.99705"/>
	<node id="14" type="to" x="-30.48975" y="107.8854"/>
	<node id="15" type="from" x="-32.66545" y="106.65405"/>
	<node id="16" type="to" x="21.60505" y="10.76415"/>
	<node id="17" type="from" x="-41.599450000000004" y="-41.99665"/>
	<node id="18" type="to" x="-49.75295" y="-47.23915"/>
	<node id="19" type="from" x="-48.402950000000004" y="-49.3433"/>
	<node id="20" type="to" x="-40.1868" y="-44.05855"/>
</nodes>
