<routes>
	<vehicle depart="0.1" departLane="0" departPos="33.14747165530249" departSpeed="0.0" id="315" type="bicycle">
		<route edges="262 103"/>
	</vehicle>
	<vehicle depart="0.1" departLane="0" departPos="98.99280732573897" departSpeed="6.9235661" id="317" type="bicycle">
		<route edges="107 110"/>
	</vehicle>
	<vehicle depart="0.1" departLane="0" departPos="28.313912258539673" departSpeed="6.216063" id="350" type="bus">
		<route edges="88 181"/>
	</vehicle>
	<vehicle depart="0.1" departLane="0" departPos="56.110423210482075" departSpeed="0.0" id="35" type="passenger">
		<route edges="180 89"/>
	</vehicle>
	<vehicle depart="0.1" departLane="0" departPos="62.87086828063811" departSpeed="0.0" id="37" type="passenger">
		<route edges="180 89"/>
	</vehicle>
	<vehicle depart="0.1" departLane="0" departPos="33.403042117635906" departSpeed="0.0" id="38" type="passenger">
		<route edges="262 103"/>
	</vehicle>
	<vehicle depart="0.1" departLane="0" departPos="26.535304871404954" departSpeed="0.0" id="311" type="passenger">
		<route edges="262 103"/>
	</vehicle>
	<vehicle depart="0.1" departLane="0" departPos="36.62548198243449" departSpeed="14.828719" id="314" type="passenger">
		<route edges="110"/>
	</vehicle>
	<vehicle depart="0.1" departLane="0" departPos="24.17703506840626" departSpeed="0.0" id="316" type="passenger">
		<route edges="104 261"/>
	</vehicle>
	<vehicle depart="0.1" departLane="0" departPos="48.94738832704988" departSpeed="0.0" id="319" type="passenger">
		<route edges="180 89"/>
	</vehicle>
	<vehicle depart="0.1" departLane="0" departPos="69.93062924135286" departSpeed="0.0" id="320" type="passenger">
		<route edges="109 106"/>
	</vehicle>
	<vehicle depart="0.1" departLane="0" departPos="112.98750524570573" departSpeed="8.9665249" id="321" type="passenger">
		<route edges="106 103"/>
	</vehicle>
	<vehicle depart="0.1" departLane="0" departPos="19.612193722726147" departSpeed="0.0" id="322" type="passenger">
		<route edges="262 103"/>
	</vehicle>
	<vehicle depart="0.1" departLane="0" departPos="41.442555185003236" departSpeed="0.0" id="324" type="passenger">
		<route edges="180 89"/>
	</vehicle>
	<vehicle depart="0.1" departLane="0" departPos="62.74988978552978" departSpeed="0.053809881" id="328" type="passenger">
		<route edges="109 106"/>
	</vehicle>
	<vehicle depart="0.1" departLane="0" departPos="34.347728339962984" departSpeed="9.6641416e-05" id="330" type="passenger">
		<route edges="180 89"/>
	</vehicle>
	<vehicle depart="0.1" departLane="0" departPos="27.2515571888454" departSpeed="0.00065791767" id="333" type="passenger">
		<route edges="180 89"/>
	</vehicle>
	<vehicle depart="0.1" departLane="0" departPos="20.154262081808874" departSpeed="0.0031094433" id="335" type="passenger">
		<route edges="180 89"/>
	</vehicle>
	<vehicle depart="0.1" departLane="0" departPos="14.856397401157022" departSpeed="19.443093" id="336" type="passenger">
		<route edges=":29_1 106 103"/>
	</vehicle>
	<vehicle depart="0.1" departLane="0" departPos="61.179191040986865" departSpeed="18.836349" id="338" type="passenger">
		<route edges="85 106 103"/>
	</vehicle>
	<vehicle depart="0.1" departLane="0" departPos="50.687764871510616" departSpeed="0.60855742" id="339" type="passenger">
		<route edges="109 106"/>
	</vehicle>
	<vehicle depart="0.1" departLane="0" departPos="13.185449783153903" departSpeed="0.011364917" id="340" type="passenger">
		<route edges="180 89"/>
	</vehicle>
	<vehicle depart="0.1" departLane="0" departPos="42.37173272361932" departSpeed="0.98777226" id="341" type="passenger">
		<route edges="109 106"/>
	</vehicle>
	<vehicle depart="0.1" departLane="0" departPos="10.357975708309453" departSpeed="10.760025" id="342" type="passenger">
		<route edges="181"/>
	</vehicle>
	<vehicle depart="0.1" departLane="0" departPos="14.607446175025155" departSpeed="13.117922" id="343" type="passenger">
		<route edges=":30_0 85 106 103"/>
	</vehicle>
	<vehicle depart="0.1" departLane="0" departPos="33.57457076494099" departSpeed="1.2988719" id="344" type="passenger">
		<route edges="109 106"/>
	</vehicle>
	<vehicle depart="0.1" departLane="0" departPos="24.503587566942176" departSpeed="1.6137987" id="346" type="passenger">
		<route edges="109 106"/>
	</vehicle>
	<vehicle depart="0.1" departLane="0" departPos="48.241395835709426" departSpeed="10.919005" id="347" type="passenger">
		<route edges="88 85 106 103"/>
	</vehicle>
	<vehicle depart="0.1" departLane="0" departPos="6.064983579757129" departSpeed="0.0306585" id="348" type="passenger">
		<route edges="180 89"/>
	</vehicle>
	<vehicle depart="0.1" departLane="0" departPos="15.17969280898177" departSpeed="1.8789815" id="349" type="passenger">
		<route edges="109 106"/>
	</vehicle>
	<vehicle depart="0.1" departLane="0" departPos="10.549079369305323" departSpeed="4.6915679" id="351" type="passenger">
		<route edges="88 85"/>
	</vehicle>
	<vehicle depart="0.1" departLane="0" departPos="6.758608192173886" departSpeed="1.3412615" id="352" type="passenger">
		<route edges="109 106"/>
	</vehicle>
	<vehicle depart="0.1" departLane="0" departPos="78.18128603185636" departSpeed="15.430249" id="332" type="motorcycle">
		<route edges="106 103"/>
	</vehicle>
	<vehicle depart="0.1" departLane="0" departPos="55.77891403859574" departSpeed="0.24933788" id="334" type="motorcycle">
		<route edges="109 106"/>
	</vehicle>
	<vehicle depart="0.1" departLane="0" departPos="24.488159426404295" departSpeed="0.0" id="337" type="motorcycle">
		<route edges="104 261"/>
	</vehicle>
	<vehicle depart="0.1" departLane="0" departPos="12.78674469410521" departSpeed="0.0" id="327" type="truck">
		<route edges="262 103"/>
	</vehicle>
</routes>
