<routes>
	<vehicle depart="0.1" departLane="0" departPos="31.955657642733087" departSpeed="0.45460336" id="34" type="passenger">
		<route edges=":38_3 66067"/>
	</vehicle>
	<vehicle depart="0.1" departLane="0" departPos="70.0156261220456" departSpeed="0.0" id="35" type="passenger">
		<route edges="66809 66650"/>
	</vehicle>
	<vehicle depart="0.1" departLane="0" departPos="26.287877053706588" departSpeed="0.0" id="38" type="passenger">
		<route edges=":37_0 66646"/>
	</vehicle>
	<vehicle depart="0.1" departLane="0" departPos="62.55171450466377" departSpeed="0.0" id="314" type="passenger">
		<route edges="66809 66650"/>
	</vehicle>
	<vehicle depart="0.1" departLane="0" departPos="55.05083208908574" departSpeed="1.6088286e-05" id="315" type="passenger">
		<route edges="66809 66650"/>
	</vehicle>
	<vehicle depart="0.1" departLane="0" departPos="47.77008227301521" departSpeed="0.00017279119" id="316" type="passenger">
		<route edges="66809 66650"/>
	</vehicle>
	<vehicle depart="0.1" departLane="0" departPos="18.75145284599978" departSpeed="0.087139858" id="324" type="passenger">
		<route edges=":37_0 66646"/>
	</vehicle>
	<vehicle depart="0.1" departLane="0" departPos="40.48670415385985" departSpeed="0.0010307267" id="326" type="passenger">
		<route edges="66809 66650"/>
	</vehicle>
	<vehicle depart="0.1" departLane="0" departPos="23.525735770023253" departSpeed="8.5015168" id="330" type="passenger">
		<route edges=":37_1 66810"/>
	</vehicle>
	<vehicle depart="0.1" departLane="0" departPos="33.53681602093762" departSpeed="0.0045965763" id="332" type="passenger">
		<route edges="66809 66650"/>
	</vehicle>
</routes>
