<!-- generated on Tue Feb  9 22:02:16 2021 by Eclipse SUMO netconvert Version 1.8.0
<configuration xmlns:xsi="http://www.w3.org/2001/XMLSchema-instance" xsi:noNamespaceSchemaLocation="http://sumo.dlr.de/xsd/netconvertConfiguration.xsd">

    <input>
        <node-files value="./converted_scenarios/scenario-factory/GRC_Perama-2_1_I-1-1/GRC_Perama-2_1_I-1-1.nod.xml"/>
        <edge-files value="./converted_scenarios/scenario-factory/GRC_Perama-2_1_I-1-1/GRC_Perama-2_1_I-1-1.edg.xml"/>
        <connection-files value="./converted_scenarios/scenario-factory/GRC_Perama-2_1_I-1-1/GRC_Perama-2_1_I-1-1.con.xml"/>
        <tllogic-files value="./converted_scenarios/scenario-factory/GRC_Perama-2_1_I-1-1/GRC_Perama-2_1_I-1-1.tll.xml"/>
        <type-files value="/home/zen/commonroad-interactive-benchmarks/install/commonroad-map-tool/crmapconverter/sumo_map/templates/DEU.typ.xml"/>
    </input>

    <output>
        <output-file value="./converted_scenarios/scenario-factory/GRC_Perama-2_1_I-1-1/GRC_Perama-2_1_I-1-1.net.xml"/>
    </output>

    <processing>
        <geometry.remove.keep-edges.explicit value="true"/>
        <geometry.avoid-overlap value="true"/>
        <offset.disable-normalization value="true"/>
    </processing>

    <junctions>
        <no-turnarounds value="true"/>
        <junctions.internal-link-detail value="20"/>
    </junctions>

    <report>
        <aggregate-warnings value="5"/>
    </report>

    <random_number>
        <seed value="1234"/>
    </random_number>

</configuration>
--><net xmlns:xsi="http://www.w3.org/2001/XMLSchema-instance" version="1.6" junctionCornerDetail="5" junctionLinkDetail="20" limitTurnSpeed="5.50" xsi:noNamespaceSchemaLocation="http://sumo.dlr.de/xsd/net_file.xsd">

    <location netOffset="0.00,0.00" convBoundary="452.29,-1031.03,676.18,-870.89" origBoundary="452.29,-1031.03,676.18,-870.89" projParameter="!"/>

    <type id="highway.bridleway" priority="1" speed="2.78" allow="pedestrian" oneway="1" width="2.00"/>
    <type id="highway.bus_guideway" priority="1" speed="27.78" allow="bus" oneway="1"/>
    <type id="highway.cycleway" priority="1" speed="8.33" allow="bicycle" oneway="0" width="1.00"/>
    <type id="highway.footway" priority="1" speed="2.78" allow="pedestrian" oneway="1" width="2.00"/>
    <type id="highway.ford" priority="1" speed="2.78" allow="army" oneway="0"/>
    <type id="highway.living_street" priority="2" speed="2.78" disallow="tram rail_urban rail rail_electric rail_fast ship" oneway="0"/>
    <type id="highway.motorway" priority="14" speed="39.44" allow="private emergency authority army vip passenger hov taxi bus coach delivery truck trailer motorcycle evehicle custom1 custom2" oneway="1"/>
    <type id="highway.motorway_link" priority="9" speed="22.22" allow="private emergency authority army vip passenger hov taxi bus coach delivery truck trailer motorcycle evehicle custom1 custom2" oneway="1"/>
    <type id="highway.path" priority="1" speed="2.78" allow="pedestrian bicycle" oneway="0" width="2.00"/>
    <type id="highway.pedestrian" priority="1" speed="2.78" allow="pedestrian" oneway="1" width="2.00"/>
    <type id="highway.primary" priority="12" speed="27.78" disallow="pedestrian tram rail_urban rail rail_electric rail_fast ship" oneway="0"/>
    <type id="highway.primary_link" priority="7" speed="22.22" disallow="pedestrian tram rail_urban rail rail_electric rail_fast ship" oneway="0"/>
    <type id="highway.raceway" priority="15" speed="83.33" allow="vip" oneway="0"/>
    <type id="highway.residential" priority="3" speed="13.89" disallow="pedestrian tram rail_urban rail rail_electric rail_fast ship" oneway="0"/>
    <type id="highway.secondary" priority="11" speed="27.78" disallow="pedestrian tram rail_urban rail rail_electric rail_fast ship" oneway="0"/>
    <type id="highway.secondary_link" priority="6" speed="22.22" disallow="pedestrian tram rail_urban rail rail_electric rail_fast ship" oneway="0"/>
    <type id="highway.service" priority="1" speed="5.56" allow="pedestrian delivery bicycle" oneway="0"/>
    <type id="highway.stairs" priority="1" speed="1.39" allow="pedestrian" oneway="1" width="2.00"/>
    <type id="highway.step" priority="1" speed="1.39" allow="pedestrian" oneway="1" width="2.00"/>
    <type id="highway.steps" priority="1" speed="1.39" allow="pedestrian" oneway="1" width="2.00"/>
    <type id="highway.tertiary" priority="10" speed="22.22" disallow="pedestrian tram rail_urban rail rail_electric rail_fast ship" oneway="0"/>
    <type id="highway.tertiary_link" priority="5" speed="22.22" disallow="pedestrian tram rail_urban rail rail_electric rail_fast ship" oneway="0"/>
    <type id="highway.track" priority="1" speed="5.56" allow="pedestrian motorcycle moped bicycle" oneway="0"/>
    <type id="highway.trunk" priority="13" speed="27.78" disallow="pedestrian bicycle tram rail_urban rail rail_electric rail_fast ship" oneway="0"/>
    <type id="highway.trunk_link" priority="8" speed="22.22" disallow="pedestrian bicycle tram rail_urban rail rail_electric rail_fast ship" oneway="0"/>
    <type id="highway.unclassified" priority="4" speed="13.89" disallow="pedestrian tram rail_urban rail rail_electric rail_fast ship" oneway="0"/>
    <type id="highway.unsurfaced" priority="1" speed="8.33" disallow="tram rail_urban rail rail_electric rail_fast ship" oneway="0"/>
    <type id="railway.highspeed" priority="21" speed="69.44" allow="rail_fast" oneway="1"/>
    <type id="railway.light_rail" priority="19" speed="27.78" allow="rail_urban" oneway="1"/>
    <type id="railway.preserved" priority="16" speed="27.78" allow="rail" oneway="1"/>
    <type id="railway.rail" priority="20" speed="44.44" allow="rail" oneway="1"/>
    <type id="railway.subway" priority="18" speed="27.78" allow="rail_urban" oneway="1"/>
    <type id="railway.tram" priority="17" speed="13.89" allow="tram" oneway="1"/>

    <edge id=":37_0" function="internal">
        <lane id=":37_0_0" index="0" disallow="pedestrian tram rail_urban rail rail_electric rail_fast ship" speed="36.11" length="25.99" width="3.49" shape="605.64,-910.44 598.97,-922.63 593.41,-933.37"/>
    </edge>
    <edge id=":37_1" function="internal">
        <lane id=":37_1_0" index="0" disallow="pedestrian tram rail_urban rail rail_electric rail_fast ship" speed="13.31" length="31.64" width="3.50" shape="605.64,-910.44 604.54,-912.59 603.22,-915.91 602.56,-918.27 602.15,-920.68 602.00,-923.14 602.13,-925.61 602.56,-928.04 603.26,-930.40 604.21,-932.66 605.37,-934.80 606.72,-936.82 608.97,-939.60"/>
    </edge>
    <edge id=":37_2" function="internal">
        <lane id=":37_2_0" index="0" disallow="pedestrian tram rail_urban rail rail_electric rail_fast ship" speed="12.38" length="27.27" width="3.50" shape="611.57,-937.25 609.58,-934.81 608.42,-933.06 607.42,-931.22 606.60,-929.28 606.01,-927.27 605.64,-925.21 605.53,-923.11 605.66,-921.02 606.02,-918.95 606.58,-916.93 607.74,-914.01 608.70,-912.14"/>
    </edge>
    <edge id=":37_3" function="internal">
        <lane id=":37_3_0" index="0" disallow="pedestrian tram rail_urban rail rail_electric rail_fast ship" speed="9.03" length="23.06" width="3.49" shape="611.57,-937.25 608.15,-933.77 605.66,-931.67 604.33,-930.74 602.93,-929.92 601.43,-929.28 599.85,-928.91 598.23,-928.94 596.70,-929.46 595.41,-930.43 594.37,-931.68 593.41,-933.37"/>
    </edge>
    <edge id=":37_4" function="internal">
        <lane id=":37_4_0" index="0" disallow="pedestrian tram rail_urban rail rail_electric rail_fast ship" speed="7.64" length="16.11" width="3.50" shape="596.54,-934.94 597.14,-933.81 597.68,-933.12 598.40,-932.67 599.28,-932.54 600.22,-932.70 601.22,-933.07 602.24,-933.61 603.26,-934.28 604.25,-935.03 606.21,-936.75 608.97,-939.60"/>
    </edge>
    <edge id=":37_5" function="internal">
        <lane id=":37_5_0" index="0" disallow="pedestrian tram rail_urban rail rail_electric rail_fast ship" speed="36.11" length="25.84" width="3.50" shape="596.54,-934.94 602.07,-924.26 608.70,-912.14"/>
    </edge>
    <edge id=":38_0" function="internal">
        <lane id=":38_0_0" index="0" disallow="pedestrian tram rail_urban rail rail_electric rail_fast ship" speed="14.27" length="29.85" width="3.50" shape="593.44,-933.31 592.87,-934.16 592.13,-934.88 591.30,-935.48 589.47,-936.42 587.53,-937.12 584.54,-937.90 581.51,-938.46 577.42,-938.98 572.29,-939.39 566.12,-939.65 565.09,-939.68"/>
    </edge>
    <edge id=":38_1" function="internal">
        <lane id=":38_1_0" index="0" disallow="pedestrian tram rail_urban rail rail_electric rail_fast ship" speed="36.11" length="34.82" width="3.50" shape="593.44,-933.31 590.48,-938.90 583.15,-951.72 580.76,-956.42 578.68,-961.26 577.62,-964.27"/>
    </edge>
    <edge id=":38_2" function="internal">
        <lane id=":38_2_0" index="0" disallow="pedestrian tram rail_urban rail rail_electric rail_fast ship" speed="36.11" length="34.21" width="3.50" shape="580.95,-965.33 581.97,-962.46 583.99,-957.76 586.32,-953.18 593.60,-940.48 596.54,-934.94"/>
    </edge>
    <edge id=":38_3" function="internal">
        <lane id=":38_3_0" index="0" disallow="pedestrian tram rail_urban rail rail_electric rail_fast ship" speed="11.62" length="38.15" width="3.50" shape="580.95,-965.33 582.16,-961.09 582.74,-958.21 583.09,-955.30 583.11,-952.37 582.97,-950.90 582.70,-949.46 582.29,-948.05 581.71,-946.70 580.97,-945.44 580.06,-944.29 579.01,-943.27 577.83,-942.40 576.55,-941.68 575.20,-941.09 573.81,-940.63 570.94,-940.01 568.02,-939.72 565.09,-939.68"/>
    </edge>
    <edge id=":38_4" function="internal">
        <lane id=":38_4_0" index="0" disallow="pedestrian tram rail_urban rail rail_electric rail_fast ship" speed="10.55" length="31.26" width="3.50" shape="565.14,-943.18 567.68,-943.21 570.14,-943.46 572.54,-943.99 573.63,-944.36 574.68,-944.84 575.66,-945.40 576.54,-946.07 577.31,-946.84 577.97,-947.71 578.51,-948.67 578.93,-949.71 579.24,-950.81 579.43,-951.96 579.54,-953.12 579.50,-955.59 579.19,-958.07 578.68,-960.54 577.62,-964.27"/>
    </edge>
    <edge id=":38_5" function="internal">
        <lane id=":38_5_0" index="0" disallow="pedestrian tram rail_urban rail rail_electric rail_fast ship" speed="15.16" length="33.54" width="3.50" shape="565.14,-943.18 566.28,-943.15 572.90,-942.85 578.43,-942.35 582.86,-941.72 586.19,-941.02 589.49,-940.05 591.70,-939.13 593.80,-937.92 594.84,-937.09 595.78,-936.09 596.54,-934.94"/>
    </edge>
    <edge id=":39_0" function="internal">
        <lane id=":39_0_0" index="0" disallow="pedestrian tram rail_urban rail rail_electric rail_fast ship" speed="36.11" length="38.63" width="3.50" shape="564.88,-939.68 545.53,-940.09 526.26,-940.49"/>
    </edge>
    <edge id=":39_1" function="internal">
        <lane id=":39_1_0" index="0" disallow="pedestrian tram rail_urban rail rail_electric rail_fast ship" speed="13.00" length="35.03" width="3.50" shape="564.88,-939.68 562.34,-939.83 559.87,-940.20 557.45,-940.82 555.12,-941.72 552.92,-942.91 550.92,-944.40 549.14,-946.16 547.61,-948.13 546.34,-950.28 545.29,-952.55 544.46,-954.91 543.54,-958.54 542.97,-962.25"/>
    </edge>
    <edge id=":39_2" function="internal">
        <lane id=":39_2_0" index="0" disallow="pedestrian tram rail_urban rail rail_electric rail_fast ship" speed="12.03" length="29.95" width="3.50" shape="546.44,-962.65 546.95,-959.36 547.75,-956.14 548.46,-954.11 549.35,-952.15 550.42,-950.32 551.69,-948.65 553.15,-947.18 554.80,-945.94 556.62,-944.93 558.57,-944.17 560.62,-943.63 562.74,-943.31 564.94,-943.18"/>
    </edge>
    <edge id=":39_3" function="internal">
        <lane id=":39_3_0" index="0" disallow="pedestrian tram rail_urban rail rail_electric rail_fast ship" speed="11.82" length="35.45" width="3.50" shape="546.44,-962.65 546.66,-960.04 546.68,-957.39 546.45,-954.71 545.91,-952.07 545.47,-950.72 544.93,-949.43 544.27,-948.18 543.48,-946.99 542.57,-945.89 541.55,-944.88 540.44,-943.99 539.25,-943.22 538.01,-942.56 536.74,-942.02 535.41,-941.57 532.81,-940.95 530.16,-940.61 526.26,-940.49"/>
    </edge>
    <edge id=":39_4" function="internal">
        <lane id=":39_4_0" index="0" disallow="pedestrian tram rail_urban rail rail_electric rail_fast ship" speed="10.79" length="29.36" width="3.50" shape="526.31,-943.99 529.69,-944.09 531.93,-944.38 534.13,-944.90 535.20,-945.26 536.24,-945.71 537.24,-946.23 538.18,-946.85 539.06,-947.56 539.87,-948.35 540.59,-949.22 541.21,-950.16 541.74,-951.16 542.18,-952.20 542.52,-953.27 542.98,-955.49 543.17,-957.74 543.15,-959.99 542.97,-962.25"/>
    </edge>
    <edge id=":39_5" function="internal">
        <lane id=":39_5_0" index="0" disallow="pedestrian tram rail_urban rail rail_electric rail_fast ship" speed="36.11" length="38.64" width="3.50" shape="526.31,-943.99 545.61,-943.59 564.94,-943.18"/>
    </edge>
    <edge id=":40_0" function="internal">
        <lane id=":40_0_0" index="0" disallow="pedestrian tram rail_urban rail rail_electric rail_fast ship" speed="11.88" length="29.49" width="3.50" shape="541.46,-975.17 541.32,-976.27 540.88,-978.45 540.24,-980.55 539.39,-982.53 538.29,-984.36 536.96,-986.01 535.40,-987.44 533.64,-988.63 531.71,-989.59 529.65,-990.33 527.52,-990.87 524.18,-991.35 520.79,-991.51"/>
    </edge>
    <edge id=":40_1" function="internal">
        <lane id=":40_1_0" index="0" disallow="pedestrian tram rail_urban rail rail_electric rail_fast ship" speed="36.11" length="38.21" width="3.50" shape="541.46,-975.17 539.27,-995.71 537.68,-1013.19"/>
    </edge>
    <edge id=":40_2" function="internal">
        <lane id=":40_2_0" index="0" disallow="pedestrian tram rail_urban rail rail_electric rail_fast ship" speed="36.11" length="38.10" width="3.50" shape="541.16,-1013.49 542.75,-996.06 544.94,-975.58"/>
    </edge>
    <edge id=":40_3" function="internal">
        <lane id=":40_3_0" index="0" disallow="pedestrian tram rail_urban rail rail_electric rail_fast ship" speed="11.95" length="35.02" width="3.50" shape="541.16,-1013.49 541.29,-1009.60 541.11,-1006.96 540.64,-1004.32 539.84,-1001.76 539.26,-1000.47 538.58,-999.25 537.78,-998.10 536.88,-997.02 535.87,-996.04 534.77,-995.16 533.61,-994.40 532.36,-993.73 529.87,-992.74 527.28,-992.07 524.66,-991.69 520.79,-991.51"/>
    </edge>
    <edge id=":40_4" function="internal">
        <lane id=":40_4_0" index="0" disallow="pedestrian tram rail_urban rail rail_electric rail_fast ship" speed="10.93" length="29.10" width="3.50" shape="520.79,-995.01 524.15,-995.16 526.36,-995.49 528.53,-996.04 530.61,-996.87 531.60,-997.40 532.53,-998.01 533.41,-998.71 534.21,-999.49 534.93,-1000.35 535.57,-1001.27 536.11,-1002.24 536.57,-1003.26 537.25,-1005.40 537.63,-1007.60 537.79,-1009.84 537.68,-1013.19"/>
    </edge>
    <edge id=":40_5" function="internal">
        <lane id=":40_5_0" index="0" disallow="pedestrian tram rail_urban rail rail_electric rail_fast ship" speed="12.84" length="34.62" width="3.50" shape="520.79,-995.01 524.64,-994.83 528.44,-994.26 530.93,-993.63 533.34,-992.75 535.62,-991.59 537.73,-990.14 539.61,-988.39 541.21,-986.39 542.52,-984.18 543.52,-981.82 544.26,-979.37 544.77,-976.85 544.94,-975.58"/>
    </edge>

    <edge id="66064" from="39" to="16" priority="3" type="highway.residential" spreadType="center" length="32.67" shape="545.54,-946.98 493.60,-941.17">
        <lane id="66064_0" index="0" disallow="pedestrian tram rail_urban rail rail_electric rail_fast ship" speed="36.11" length="32.67" width="3.50" customShape="1" shape="526.26,-940.49 509.92,-940.83 493.60,-941.17"/>
    </edge>
    <edge id="66065" from="32" to="39" priority="3" type="highway.residential" spreadType="center" length="32.68" shape="493.67,-944.67 545.16,-950.45">
        <lane id="66065_0" index="0" disallow="pedestrian tram rail_urban rail rail_electric rail_fast ship" speed="36.11" length="32.68" width="3.50" customShape="1" shape="493.67,-944.67 509.99,-944.33 526.34,-943.99"/>
    </edge>
    <edge id="66067" from="38" to="39" priority="3" type="highway.residential" spreadType="center" length="0.25" shape="579.70,-945.04 545.11,-946.97">
        <lane id="66067_0" index="0" disallow="pedestrian tram rail_urban rail rail_electric rail_fast ship" speed="36.11" length="0.25" width="3.50" customShape="1" shape="565.09,-939.68 564.96,-939.68 564.84,-939.68"/>
    </edge>
    <edge id="66068" from="39" to="38" priority="3" type="highway.residential" spreadType="center" length="0.23" shape="545.30,-950.46 579.89,-948.53">
        <lane id="66068_0" index="0" disallow="pedestrian tram rail_urban rail rail_electric rail_fast ship" speed="36.11" length="0.23" width="3.50" customShape="1" shape="564.93,-943.18 565.04,-943.18 565.16,-943.18"/>
    </edge>
    <edge id="66242" from="40" to="24" priority="3" type="highway.residential" spreadType="center" length="17.61" shape="532.72,-994.07 536.19,-1030.74">
        <lane id="66242_0" index="0" disallow="pedestrian tram rail_urban rail rail_electric rail_fast ship" speed="36.11" length="17.61" width="3.50" customShape="1" shape="537.68,-1013.19 536.93,-1021.96 536.19,-1030.74"/>
    </edge>
    <edge id="66243" from="36" to="40" priority="3" type="highway.residential" spreadType="center" length="17.63" shape="539.67,-1031.03 536.20,-993.74">
        <lane id="66243_0" index="0" disallow="pedestrian tram rail_urban rail rail_electric rail_fast ship" speed="36.11" length="17.63" width="3.50" customShape="1" shape="539.67,-1031.03 540.42,-1022.26 541.16,-1013.46"/>
    </edge>
    <edge id="66245" from="39" to="40" priority="3" type="highway.residential" spreadType="center" length="13.01" shape="543.59,-948.30 532.76,-993.64">
        <lane id="66245_0" index="0" disallow="pedestrian tram rail_urban rail rail_electric rail_fast ship" speed="36.11" length="13.01" width="3.50" customShape="1" shape="542.97,-962.25 542.21,-968.71 541.46,-975.17"/>
    </edge>
    <edge id="66246" from="40" to="39" priority="3" type="highway.residential" spreadType="center" length="13.02" shape="536.16,-994.45 546.99,-949.11">
        <lane id="66246_0" index="0" disallow="pedestrian tram rail_urban rail rail_electric rail_fast ship" speed="36.11" length="13.02" width="3.50" customShape="1" shape="544.94,-975.58 545.69,-969.12 546.44,-962.65"/>
    </edge>
    <edge id="66643" from="38" to="3" priority="3" type="highway.residential" spreadType="center" length="63.89" shape="578.05,-946.67 574.29,-1027.90">
        <lane id="66643_0" index="0" disallow="pedestrian tram rail_urban rail rail_electric rail_fast ship" speed="36.11" length="63.89" width="3.50" customShape="1" shape="577.62,-964.27 576.77,-967.19 576.05,-970.70 575.55,-974.76 575.34,-979.35 575.47,-987.02 575.61,-994.69 574.29,-1027.90"/>
    </edge>
    <edge id="66644" from="17" to="38" priority="3" type="highway.residential" spreadType="center" length="63.04" shape="577.79,-1028.04 581.54,-946.83">
        <lane id="66644_0" index="0" disallow="pedestrian tram rail_urban rail rail_electric rail_fast ship" speed="36.11" length="63.04" width="3.50" customShape="1" shape="577.79,-1028.04 579.11,-995.03 578.99,-987.36 578.84,-979.80 579.01,-975.36 579.47,-971.47 580.15,-968.13 580.98,-965.24"/>
    </edge>
    <edge id="66646" from="37" to="38" priority="3" type="highway.residential" spreadType="center" length="0.39" shape="603.11,-926.49 578.65,-945.47">
        <lane id="66646_0" index="0" disallow="pedestrian tram rail_urban rail rail_electric rail_fast ship" speed="36.11" length="0.39" width="3.49" customShape="1" shape="593.41,-933.37 593.24,-933.72"/>
    </edge>
    <edge id="66647" from="38" to="37" priority="3" type="highway.residential" spreadType="center" length="0.37" shape="580.79,-948.22 605.25,-929.25">
        <lane id="66647_0" index="0" disallow="pedestrian tram rail_urban rail rail_electric rail_fast ship" speed="36.11" length="0.37" width="3.50" customShape="1" shape="596.37,-935.27 596.54,-934.94"/>
    </edge>
    <edge id="66649" from="34" to="37" priority="3" type="highway.residential" spreadType="center" length="45.28" shape="627.64,-870.89 602.56,-927.20">
        <lane id="66649_0" index="0" disallow="pedestrian tram rail_urban rail rail_electric rail_fast ship" speed="36.11" length="45.28" width="3.50" customShape="1" shape="627.64,-870.89 616.64,-890.66 605.63,-910.46"/>
    </edge>
    <edge id="66650" from="37" to="31" priority="3" type="highway.residential" spreadType="center" length="45.26" shape="605.76,-928.63 630.70,-872.59">
        <lane id="66650_0" index="0" disallow="pedestrian tram rail_urban rail rail_electric rail_fast ship" speed="36.11" length="45.26" width="3.50" customShape="1" shape="608.70,-912.14 619.70,-892.37 630.70,-872.59"/>
    </edge>
    <edge id="66809" from="33" to="37" priority="3" type="highway.residential" spreadType="center" length="70.10" shape="676.18,-955.51 604.81,-926.24">
        <lane id="66809_0" index="0" disallow="pedestrian tram rail_urban rail rail_electric rail_fast ship" speed="36.11" length="70.10" width="3.50" customShape="1" shape="676.18,-955.51 657.15,-955.81 651.15,-955.76 646.67,-955.45 642.22,-954.80 637.84,-953.76 633.56,-952.40 629.40,-950.68 625.41,-948.61 621.60,-946.23 618.38,-943.85 615.02,-940.86 611.50,-937.18"/>
    </edge>
    <edge id="66810" from="37" to="29" priority="3" type="highway.residential" spreadType="center" length="70.00" shape="603.46,-929.46 673.26,-959.06">
        <lane id="66810_0" index="0" disallow="pedestrian tram rail_urban rail rail_electric rail_fast ship" speed="36.11" length="70.00" width="3.50" customShape="1" shape="608.97,-939.60 612.53,-943.31 616.00,-946.42 619.34,-948.92 623.27,-951.42 627.39,-953.60 631.69,-955.43 636.11,-956.90 640.62,-958.04 645.23,-958.80 649.87,-959.20 655.99,-959.31 673.26,-959.06"/>
    </edge>
    <edge id="66823" from="40" to="22" priority="3" type="highway.residential" spreadType="center" length="70.01" shape="534.78,-992.26 452.32,-979.34">
        <lane id="66823_0" index="0" disallow="pedestrian tram rail_urban rail rail_electric rail_fast ship" speed="36.11" length="70.01" width="3.50" customShape="1" shape="520.79,-991.51 518.78,-991.51 508.28,-991.37 500.29,-990.92 492.84,-990.14 486.42,-989.09 479.58,-987.60 470.40,-985.16 460.84,-982.25 452.32,-979.34"/>
    </edge>
    <edge id="66824" from="35" to="40" priority="3" type="highway.residential" spreadType="center" length="70.00" shape="452.29,-983.03 534.24,-995.72">
        <lane id="66824_0" index="0" disallow="pedestrian tram rail_urban rail rail_electric rail_fast ship" speed="36.11" length="70.00" width="3.50" customShape="1" shape="452.29,-983.03 459.88,-985.62 469.58,-988.56 478.89,-991.03 485.86,-992.55 492.42,-993.61 500.02,-994.41 508.14,-994.87 518.77,-995.01 520.80,-995.01"/>
    </edge>

    <junction id="16" type="dead_end" x="493.60" y="-941.17" incLanes="66064_0" intLanes="" shape="493.56,-939.42 493.64,-942.92" rightOfWay="edgePriority"/>
    <junction id="17" type="dead_end" x="577.79" y="-1028.04" incLanes="" intLanes="" shape="576.04,-1027.97 579.54,-1028.11" rightOfWay="edgePriority"/>
    <junction id="22" type="dead_end" x="452.32" y="-979.34" incLanes="66823_0" intLanes="" shape="452.88,-977.69 451.75,-981.00" rightOfWay="edgePriority"/>
    <junction id="24" type="dead_end" x="536.19" y="-1030.74" incLanes="66242_0" intLanes="" shape="534.44,-1030.59 537.93,-1030.88" rightOfWay="edgePriority"/>
    <junction id="29" type="dead_end" x="673.26" y="-959.06" incLanes="66810_0" intLanes="" shape="673.29,-960.81 673.24,-957.31" rightOfWay="edgePriority"/>
    <junction id="3" type="dead_end" x="574.29" y="-1027.90" incLanes="66643_0" intLanes="" shape="572.54,-1027.83 576.04,-1027.97" rightOfWay="edgePriority"/>
    <junction id="31" type="dead_end" x="630.70" y="-872.59" incLanes="66650_0" intLanes="" shape="632.23,-873.44 629.17,-871.74" rightOfWay="edgePriority"/>
    <junction id="32" type="dead_end" x="493.67" y="-944.67" incLanes="" intLanes="" shape="493.64,-942.92 493.71,-946.42" rightOfWay="edgePriority"/>
    <junction id="33" type="dead_end" x="676.18" y="-955.51" incLanes="" intLanes="" shape="676.20,-957.26 676.15,-953.76" rightOfWay="edgePriority"/>
    <junction id="34" type="dead_end" x="627.64" y="-870.89" incLanes="" intLanes="" shape="629.17,-871.74 626.11,-870.04" rightOfWay="edgePriority"/>
    <junction id="35" type="dead_end" x="452.29" y="-983.03" incLanes="" intLanes="" shape="452.85,-981.38 451.72,-984.69" rightOfWay="edgePriority"/>
    <junction id="36" type="dead_end" x="539.67" y="-1031.03" incLanes="" intLanes="" shape="537.93,-1030.88 541.42,-1031.18" rightOfWay="edgePriority"/>
    <junction id="37" type="priority" x="604.18" y="-927.87" incLanes="66649_0 66809_0 66647_0" intLanes=":37_0_0 :37_1_0 :37_2_0 :37_3_0 :37_4_0 :37_5_0" shape="604.11,-909.59 610.23,-912.99 608.31,-917.21 607.33,-921.26 607.28,-925.17 608.17,-928.92 610.00,-932.52 612.76,-935.97 607.71,-940.81 597.94,-936.05 591.67,-932.95">
        <request index="0" response="000000" foes="001000" cont="0"/>
        <request index="1" response="110000" foes="111000" cont="0"/>
        <request index="2" response="100000" foes="100000" cont="0"/>
        <request index="3" response="100011" foes="100011" cont="0"/>
        <request index="4" response="000000" foes="000010" cont="0"/>
        <request index="5" response="000000" foes="001110" cont="0"/>
    </junction>
    <junction id="38" type="priority" x="579.80" y="-946.78" incLanes="66646_0 66644_0 66068_0" intLanes=":38_0_0 :38_1_0 :38_2_0 :38_3_0 :38_4_0 :38_5_0" shape="591.85,-932.59 598.10,-935.72 594.66,-942.06 591.78,-946.60 589.30,-950.30 587.06,-954.10 584.90,-958.92 582.66,-965.73 575.94,-963.79 577.14,-958.35 577.32,-953.68 576.34,-949.90 574.08,-947.11 570.41,-945.42 565.20,-944.93 565.05,-937.93 572.57,-937.64 578.87,-937.11 583.95,-936.34 587.80,-935.33 590.44,-934.08">
        <request index="0" response="000000" foes="001000" cont="0"/>
        <request index="1" response="110000" foes="111000" cont="0"/>
        <request index="2" response="100000" foes="100000" cont="0"/>
        <request index="3" response="100011" foes="100011" cont="0"/>
        <request index="4" response="000000" foes="000010" cont="0"/>
        <request index="5" response="000000" foes="001110" cont="0"/>
    </junction>
    <junction id="39" type="priority" x="545.29" y="-948.71" incLanes="66067_0 66246_0 66065_0" intLanes=":39_0_0 :39_1_0 :39_2_0 :39_3_0 :39_4_0 :39_5_0" shape="564.85,-937.93 564.96,-944.93 560.41,-945.49 556.55,-947.03 553.40,-949.53 550.96,-953.00 549.22,-957.44 548.18,-962.85 541.23,-962.04 541.35,-956.96 540.44,-952.83 538.48,-949.64 535.49,-947.39 531.45,-946.09 526.37,-945.74 526.23,-938.74">
        <request index="0" response="000000" foes="001000" cont="0"/>
        <request index="1" response="110000" foes="111000" cont="0"/>
        <request index="2" response="100000" foes="100000" cont="0"/>
        <request index="3" response="100011" foes="100011" cont="0"/>
        <request index="4" response="000000" foes="000010" cont="0"/>
        <request index="5" response="000000" foes="001110" cont="0"/>
    </junction>
    <junction id="40" type="priority" x="534.47" y="-993.98" incLanes="66245_0 66243_0 66824_0" intLanes=":40_0_0 :40_1_0 :40_2_0 :40_3_0 :40_4_0 :40_5_0" shape="539.73,-974.97 546.68,-975.78 542.91,-1013.63 535.93,-1013.04 535.90,-1008.05 534.87,-1003.97 532.84,-1000.80 529.82,-998.54 525.81,-997.19 520.80,-996.76 520.78,-989.76 526.09,-989.33 530.54,-988.09 534.13,-986.04 536.86,-983.17 538.72,-979.48">
        <request index="0" response="000000" foes="001000" cont="0"/>
        <request index="1" response="000000" foes="111000" cont="0"/>
        <request index="2" response="000000" foes="100000" cont="0"/>
        <request index="3" response="000011" foes="100011" cont="0"/>
        <request index="4" response="000010" foes="000010" cont="0"/>
        <request index="5" response="001110" foes="001110" cont="0"/>
    </junction>

    <connection from="66065" to="66245" fromLane="0" toLane="0" contPos="-4.00" shape="526.31,-943.99 529.69,-944.09 531.93,-944.38 534.13,-944.90 535.20,-945.26 536.24,-945.71 537.24,-946.23 538.18,-946.85 539.06,-947.56 539.87,-948.35 540.59,-949.22 541.21,-950.16 541.74,-951.16 542.18,-952.20 542.52,-953.27 542.98,-955.49 543.17,-957.74 543.15,-959.99 542.97,-962.25" via=":39_4_0" dir="r" state="M"/>
    <connection from="66065" to="66068" fromLane="0" toLane="0" contPos="-4.00" shape="526.31,-943.99 545.61,-943.59 564.94,-943.18" via=":39_5_0" dir="s" state="M"/>
    <connection from="66067" to="66064" fromLane="0" toLane="0" contPos="-4.00" shape="564.84,-939.68 545.53,-940.09 526.26,-940.49" via=":39_0_0" dir="s" state="M"/>
    <connection from="66067" to="66245" fromLane="0" toLane="0" contPos="-4.00" shape="564.84,-939.68 562.34,-939.83 559.87,-940.20 557.45,-940.82 555.12,-941.72 552.92,-942.91 550.92,-944.40 549.14,-946.16 547.61,-948.13 546.34,-950.28 545.29,-952.55 544.46,-954.91 543.54,-958.54 542.97,-962.25" via=":39_1_0" dir="l" state="m"/>
    <connection from="66068" to="66643" fromLane="0" toLane="0" contPos="-4.00" shape="565.14,-943.18 567.68,-943.21 570.14,-943.46 572.54,-943.99 573.63,-944.36 574.68,-944.84 575.66,-945.40 576.54,-946.07 577.31,-946.84 577.97,-947.71 578.51,-948.67 578.93,-949.71 579.24,-950.81 579.43,-951.96 579.54,-953.12 579.50,-955.59 579.19,-958.07 578.68,-960.54 577.62,-964.27" via=":38_4_0" dir="r" state="M"/>
    <connection from="66068" to="66647" fromLane="0" toLane="0" contPos="-4.00" shape="565.14,-943.18 566.28,-943.15 572.90,-942.85 578.43,-942.35 582.86,-941.72 586.19,-941.02 589.49,-940.05 591.70,-939.13 593.80,-937.92 594.84,-937.09 595.78,-936.09 596.54,-934.94" via=":38_5_0" dir="s" state="M"/>
    <connection from="66243" to="66246" fromLane="0" toLane="0" contPos="-4.00" shape="541.16,-1013.46 542.75,-996.06 544.94,-975.58" via=":40_2_0" dir="s" state="M"/>