<routes>
	<vehicle depart="0.1" departLane="0" departPos="10.35079977216666" departSpeed="1.4256897" id="34" type="passenger">
		<route edges=":19_11 21968"/>
	</vehicle>
	<vehicle depart="0.1" departLane="0" departPos="34.90135353669685" departSpeed="0.030428388" id="39" type="passenger">
		<route edges="22052 21968"/>
	</vehicle>
	<vehicle depart="0.1" departLane="0" departPos="36.04761596522275" departSpeed="8.4685186" id="312" type="passenger">
		<route edges=":19_2 22053"/>
	</vehicle>
	<vehicle depart="0.1" departLane="0" departPos="27.190791706099155" departSpeed="0.55571028" id="316" type="passenger">
		<route edges=":19_7 21968"/>
	</vehicle>
	<vehicle depart="0.1" departLane="0" departPos="7.094794077560041" departSpeed="5.0684577" id="318" type="passenger">
		<route edges=":19_6 22053"/>
	</vehicle>
	<vehicle depart="0.1" departLane="0" departPos="11.139218337419683" departSpeed="1.471504" id="319" type="passenger">
		<route edges=":19_0 22049"/>
	</vehicle>
	<vehicle depart="0.1" departLane="0" departPos="6.776058862938904" departSpeed="1.3997974" id="320" type="passenger">
		<route edges="21967 22053"/>
	</vehicle>
	<vehicle depart="0.1" departLane="0" departPos="9.798455477840232" departSpeed="3.7938022" id="321" type="passenger">
		<route edges="21965 22049"/>
	</vehicle>
	<vehicle depart="0.1" departLane="0" departPos="7.321661299231149" departSpeed="1.8524447" id="323" type="passenger">
		<route edges="22593 21967"/>
	</vehicle>
	<vehicle depart="0.1" departLane="0" departPos="41.76070417421377" departSpeed="0.67207215" id="33" type="motorcycle">
		<route edges="22052 21968"/>
	</vehicle>
</routes>
