<routes>
	<vehicle depart="0.1" departLane="0" departPos="29.801853858890038" departSpeed="6.0173658" id="340" type="bus">
		<route edges=":37_1 3248 3443"/>
	</vehicle>
	<vehicle depart="0.1" departLane="0" departPos="45.056340136994" departSpeed="0.059900786" id="33" type="passenger">
		<route edges="3564 3255"/>
	</vehicle>
	<vehicle depart="0.1" departLane="0" departPos="32.135730361741075" departSpeed="0.0" id="35" type="passenger">
		<route edges=":38_2 3249"/>
	</vehicle>
	<vehicle depart="0.1" departLane="0" departPos="59.406264484112924" departSpeed="0.03025348" id="320" type="passenger">
		<route edges="3564 3255"/>
	</vehicle>
	<vehicle depart="0.1" departLane="0" departPos="51.2334799770675" departSpeed="0.015477699" id="321" type="passenger">
		<route edges="3564 3255"/>
	</vehicle>
	<vehicle depart="0.1" departLane="0" departPos="14.51481717138011" departSpeed="8.1585307" id="344" type="passenger">
		<route edges=":37_0 3252 3565"/>
	</vehicle>
	<vehicle depart="0.1" departLane="0" departPos="70.0995989784391" departSpeed="7.5215878" id="352" type="passenger">
		<route edges="3857 3248"/>
	</vehicle>
	<vehicle depart="0.1" departLane="0" departPos="54.56094696853453" departSpeed="6.5186841" id="362" type="passenger">
		<route edges="3857 3252"/>
	</vehicle>
	<vehicle depart="0.1" departLane="0" departPos="68.50266489694093" departSpeed="0.39778846" id="30" type="truck">
		<route edges="3564 3255"/>
	</vehicle>
	<vehicle depart="0.1" departLane="0" departPos="42.13787160631706" departSpeed="0.0" id="325" type="truck">
		<route edges=":38_2 3249"/>
	</vehicle>
</routes>
