<!-- generated on Tue Feb  9 22:18:38 2021 by Eclipse SUMO netconvert Version 1.8.0
<configuration xmlns:xsi="http://www.w3.org/2001/XMLSchema-instance" xsi:noNamespaceSchemaLocation="http://sumo.dlr.de/xsd/netconvertConfiguration.xsd">

    <input>
        <node-files value="./converted_scenarios/scenario-factory/DEU_Muehlhausen-6_1_I-1-1/DEU_Muehlhausen-6_1_I-1-1.nod.xml"/>
        <edge-files value="./converted_scenarios/scenario-factory/DEU_Muehlhausen-6_1_I-1-1/DEU_Muehlhausen-6_1_I-1-1.edg.xml"/>
        <connection-files value="./converted_scenarios/scenario-factory/DEU_Muehlhausen-6_1_I-1-1/DEU_Muehlhausen-6_1_I-1-1.con.xml"/>
        <tllogic-files value="./converted_scenarios/scenario-factory/DEU_Muehlhausen-6_1_I-1-1/DEU_Muehlhausen-6_1_I-1-1.tll.xml"/>
        <type-files value="/home/zen/commonroad-interactive-benchmarks/install/commonroad-map-tool/crmapconverter/sumo_map/templates/DEU.typ.xml"/>
    </input>

    <output>
        <output-file value="./converted_scenarios/scenario-factory/DEU_Muehlhausen-6_1_I-1-1/DEU_Muehlhausen-6_1_I-1-1.net.xml"/>
    </output>

    <processing>
        <geometry.remove.keep-edges.explicit value="true"/>
        <geometry.avoid-overlap value="true"/>
        <offset.disable-normalization value="true"/>
    </processing>

    <junctions>
        <no-turnarounds value="true"/>
        <junctions.internal-link-detail value="20"/>
    </junctions>

    <report>
        <aggregate-warnings value="5"/>
    </report>

    <random_number>
        <seed value="1234"/>
    </random_number>

</configuration>
--><net xmlns:xsi="http://www.w3.org/2001/XMLSchema-instance" version="1.6" junctionCornerDetail="5" junctionLinkDetail="20" limitTurnSpeed="5.50" xsi:noNamespaceSchemaLocation="http://sumo.dlr.de/xsd/net_file.xsd">

    <location netOffset="0.00,0.00" convBoundary="-459.41,-374.46,-286.12,-105.13" origBoundary="-459.41,-374.46,-286.12,-105.13" projParameter="!"/>

    <type id="highway.bridleway" priority="1" speed="2.78" allow="pedestrian" oneway="1" width="2.00"/>
    <type id="highway.bus_guideway" priority="1" speed="27.78" allow="bus" oneway="1"/>
    <type id="highway.cycleway" priority="1" speed="8.33" allow="bicycle" oneway="0" width="1.00"/>
    <type id="highway.footway" priority="1" speed="2.78" allow="pedestrian" oneway="1" width="2.00"/>
    <type id="highway.ford" priority="1" speed="2.78" allow="army" oneway="0"/>
    <type id="highway.living_street" priority="2" speed="2.78" disallow="tram rail_urban rail rail_electric rail_fast ship" oneway="0"/>
    <type id="highway.motorway" priority="14" speed="39.44" allow="private emergency authority army vip passenger hov taxi bus coach delivery truck trailer motorcycle evehicle custom1 custom2" oneway="1"/>
    <type id="highway.motorway_link" priority="9" speed="22.22" allow="private emergency authority army vip passenger hov taxi bus coach delivery truck trailer motorcycle evehicle custom1 custom2" oneway="1"/>
    <type id="highway.path" priority="1" speed="2.78" allow="pedestrian bicycle" oneway="0" width="2.00"/>
    <type id="highway.pedestrian" priority="1" speed="2.78" allow="pedestrian" oneway="1" width="2.00"/>
    <type id="highway.primary" priority="12" speed="27.78" disallow="pedestrian tram rail_urban rail rail_electric rail_fast ship" oneway="0"/>
    <type id="highway.primary_link" priority="7" speed="22.22" disallow="pedestrian tram rail_urban rail rail_electric rail_fast ship" oneway="0"/>
    <type id="highway.raceway" priority="15" speed="83.33" allow="vip" oneway="0"/>
    <type id="highway.residential" priority="3" speed="13.89" disallow="pedestrian tram rail_urban rail rail_electric rail_fast ship" oneway="0"/>
    <type id="highway.secondary" priority="11" speed="27.78" disallow="pedestrian tram rail_urban rail rail_electric rail_fast ship" oneway="0"/>
    <type id="highway.secondary_link" priority="6" speed="22.22" disallow="pedestrian tram rail_urban rail rail_electric rail_fast ship" oneway="0"/>
    <type id="highway.service" priority="1" speed="5.56" allow="pedestrian delivery bicycle" oneway="0"/>
    <type id="highway.stairs" priority="1" speed="1.39" allow="pedestrian" oneway="1" width="2.00"/>
    <type id="highway.step" priority="1" speed="1.39" allow="pedestrian" oneway="1" width="2.00"/>
    <type id="highway.steps" priority="1" speed="1.39" allow="pedestrian" oneway="1" width="2.00"/>
    <type id="highway.tertiary" priority="10" speed="22.22" disallow="pedestrian tram rail_urban rail rail_electric rail_fast ship" oneway="0"/>
    <type id="highway.tertiary_link" priority="5" speed="22.22" disallow="pedestrian tram rail_urban rail rail_electric rail_fast ship" oneway="0"/>
    <type id="highway.track" priority="1" speed="5.56" allow="pedestrian motorcycle moped bicycle" oneway="0"/>
    <type id="highway.trunk" priority="13" speed="27.78" disallow="pedestrian bicycle tram rail_urban rail rail_electric rail_fast ship" oneway="0"/>
    <type id="highway.trunk_link" priority="8" speed="22.22" disallow="pedestrian bicycle tram rail_urban rail rail_electric rail_fast ship" oneway="0"/>
    <type id="highway.unclassified" priority="4" speed="13.89" disallow="pedestrian tram rail_urban rail rail_electric rail_fast ship" oneway="0"/>
    <type id="highway.unsurfaced" priority="1" speed="8.33" disallow="tram rail_urban rail rail_electric rail_fast ship" oneway="0"/>
    <type id="railway.highspeed" priority="21" speed="69.44" allow="rail_fast" oneway="1"/>
    <type id="railway.light_rail" priority="19" speed="27.78" allow="rail_urban" oneway="1"/>
    <type id="railway.preserved" priority="16" speed="27.78" allow="rail" oneway="1"/>
    <type id="railway.rail" priority="20" speed="44.44" allow="rail" oneway="1"/>
    <type id="railway.subway" priority="18" speed="27.78" allow="rail_urban" oneway="1"/>
    <type id="railway.tram" priority="17" speed="13.89" allow="tram" oneway="1"/>

    <edge id=":37_0" function="internal">
        <lane id=":37_0_0" index="0" disallow="pedestrian tram rail_urban rail rail_electric rail_fast ship" speed="8.92" length="19.07" width="3.48" shape="-354.94,-200.97 -357.97,-201.67 -361.05,-202.24 -363.11,-202.52 -365.18,-202.69 -366.23,-202.71 -367.27,-202.66 -368.30,-202.53 -369.30,-202.27 -370.23,-201.80 -370.95,-201.06 -371.49,-198.69"/>
    </edge>
    <edge id=":37_1" function="internal">
        <lane id=":37_1_0" index="0" disallow="pedestrian tram rail_urban rail rail_electric rail_fast ship" speed="12.60" length="33.12" width="3.50" shape="-354.94,-200.97 -358.49,-202.05 -360.82,-203.02 -363.06,-204.23 -365.17,-205.71 -367.09,-207.47 -368.73,-209.50 -370.05,-211.76 -371.03,-214.17 -371.67,-216.66 -372.02,-219.18 -372.11,-221.71 -371.88,-225.39"/>
    </edge>
    <edge id=":37_2" function="internal">
        <lane id=":37_2_0" index="0" disallow="pedestrian tram rail_urban rail rail_electric rail_fast ship" speed="11.62" length="28.03" width="3.50" shape="-368.40,-225.01 -368.61,-221.78 -368.52,-219.63 -368.23,-217.49 -367.70,-215.40 -366.89,-213.40 -365.80,-211.54 -364.44,-209.86 -362.85,-208.40 -361.09,-207.16 -359.19,-206.14 -357.19,-205.31 -354.11,-204.37"/>
    </edge>
    <edge id=":37_3" function="internal">
        <lane id=":37_3_0" index="0" disallow="pedestrian tram rail_urban rail rail_electric rail_fast ship" speed="36.11" length="26.50" width="3.48" shape="-368.40,-225.01 -369.85,-212.55 -371.49,-198.69"/>
    </edge>
    <edge id=":37_4" function="internal">
        <lane id=":37_4_0" index="0" disallow="pedestrian tram rail_urban rail rail_electric rail_fast ship" speed="36.11" length="22.64" width="3.50" shape="-374.38,-202.89 -373.32,-212.95 -371.88,-225.39"/>
    </edge>
    <edge id=":37_5" function="internal">
        <lane id=":37_5_0" index="0" disallow="pedestrian tram rail_urban rail rail_electric rail_fast ship" speed="9.69" length="22.56" width="3.50" shape="-374.38,-202.89 -374.32,-202.12 -373.33,-203.63 -372.01,-204.70 -370.61,-205.37 -369.23,-205.76 -367.87,-205.99 -366.51,-206.09 -363.94,-206.05 -361.41,-205.79 -357.72,-205.18 -354.11,-204.37"/>
    </edge>
    <edge id=":38_0" function="internal">
        <lane id=":38_0_0" index="0" disallow="pedestrian tram rail_urban rail rail_electric rail_fast ship" speed="12.14" length="30.17" width="3.50" shape="-371.53,-228.41 -371.37,-230.56 -371.40,-232.71 -371.65,-234.85 -372.15,-236.95 -372.92,-238.96 -373.95,-240.85 -375.25,-242.58 -376.75,-244.11 -378.44,-245.46 -380.25,-246.63 -382.16,-247.63 -385.15,-248.85 -388.24,-249.80"/>
    </edge>
    <edge id=":38_1" function="internal">
        <lane id=":38_1_0" index="0" disallow="pedestrian tram rail_urban rail rail_electric rail_fast ship" speed="36.11" length="39.12" width="3.50" shape="-371.53,-228.41 -369.28,-247.82 -367.03,-267.27"/>
    </edge>
    <edge id=":38_2" function="internal">
        <lane id=":38_2_0" index="0" disallow="pedestrian tram rail_urban rail rail_electric rail_fast ship" speed="36.11" length="39.10" width="3.50" shape="-363.55,-266.87 -365.81,-247.42 -368.05,-228.03"/>
    </edge>
    <edge id=":38_3" function="internal">
        <lane id=":38_3_0" index="0" disallow="pedestrian tram rail_urban rail rail_electric rail_fast ship" speed="11.83" length="35.74" width="3.50" shape="-363.55,-266.87 -364.23,-262.77 -364.94,-260.12 -365.93,-257.55 -366.54,-256.32 -367.24,-255.14 -368.03,-254.02 -368.92,-252.98 -369.91,-252.03 -371.00,-251.18 -372.16,-250.45 -373.40,-249.85 -374.68,-249.38 -376.01,-249.03 -377.36,-248.79 -380.10,-248.61 -382.85,-248.77 -385.56,-249.18 -388.24,-249.80"/>
    </edge>
    <edge id=":38_4" function="internal">
        <lane id=":38_4_0" index="0" disallow="pedestrian tram rail_urban rail rail_electric rail_fast ship" speed="10.81" length="29.59" width="3.50" shape="-387.34,-253.19 -385.02,-252.65 -382.69,-252.29 -380.38,-252.16 -378.08,-252.31 -377.02,-252.50 -375.96,-252.78 -374.94,-253.15 -373.98,-253.63 -373.07,-254.19 -372.23,-254.85 -371.45,-255.60 -370.75,-256.42 -370.11,-257.32 -369.55,-258.29 -369.05,-259.28 -368.22,-261.45 -367.62,-263.70 -367.03,-267.27"/>
    </edge>
    <edge id=":38_5" function="internal">
        <lane id=":38_5_0" index="0" disallow="pedestrian tram rail_urban rail rail_electric rail_fast ship" speed="13.08" length="35.18" width="3.50" shape="-387.34,-253.19 -383.85,-252.11 -380.46,-250.71 -378.25,-249.54 -376.14,-248.17 -374.18,-246.57 -372.40,-244.73 -370.88,-242.65 -369.66,-240.39 -368.76,-237.98 -368.18,-235.50 -367.90,-232.98 -367.87,-230.48 -368.05,-228.03"/>
    </edge>
    <edge id=":39_0" function="internal">
        <lane id=":39_0_0" index="0" disallow="pedestrian tram rail_urban rail rail_electric rail_fast ship" speed="36.11" length="39.07" width="3.50" shape="-358.13,-313.60 -360.38,-294.19 -362.63,-274.79"/>
    </edge>
    <edge id=":39_1" function="internal">
        <lane id=":39_1_0" index="0" disallow="pedestrian tram rail_urban rail rail_electric rail_fast ship" speed="11.85" length="35.33" width="3.50" shape="-358.13,-313.60 -358.77,-309.74 -359.47,-307.17 -360.43,-304.65 -361.71,-302.27 -362.53,-301.10 -363.43,-300.03 -364.44,-299.04 -365.56,-298.15 -366.75,-297.38 -368.02,-296.73 -369.33,-296.22 -370.67,-295.83 -372.03,-295.56 -373.42,-295.39 -376.09,-295.33 -378.75,-295.55 -382.59,-296.27"/>
    </edge>
    <edge id=":39_2" function="internal">
        <lane id=":39_2_0" index="0" disallow="pedestrian tram rail_urban rail rail_electric rail_fast ship" speed="10.83" length="29.27" width="3.50" shape="-381.77,-299.68 -378.46,-299.05 -376.21,-298.86 -373.96,-298.92 -372.84,-299.05 -371.74,-299.28 -370.66,-299.59 -369.61,-300.00 -368.61,-300.52 -367.66,-301.13 -366.79,-301.83 -365.98,-302.62 -365.26,-303.48 -364.61,-304.41 -363.55,-306.39 -362.75,-308.49 -362.16,-310.67 -361.61,-314.00"/>
    </edge>
    <edge id=":39_3" function="internal">
        <lane id=":39_3_0" index="0" disallow="pedestrian tram rail_urban rail rail_electric rail_fast ship" speed="12.94" length="35.06" width="3.50" shape="-381.77,-299.68 -378.16,-298.64 -374.67,-297.26 -372.44,-296.11 -370.34,-294.75 -368.40,-293.17 -366.68,-291.35 -365.22,-289.31 -364.07,-287.09 -363.23,-284.73 -362.70,-282.29 -362.45,-279.79 -362.44,-277.29 -362.63,-274.79"/>
    </edge>
    <edge id=":39_4" function="internal">
        <lane id=":39_4_0" index="0" disallow="pedestrian tram rail_urban rail rail_electric rail_fast ship" speed="11.99" length="29.96" width="3.50" shape="-366.11,-275.17 -365.94,-277.37 -365.95,-279.53 -366.17,-281.65 -366.62,-283.71 -367.33,-285.67 -368.29,-287.51 -369.51,-289.19 -370.96,-290.69 -372.61,-292.02 -374.41,-293.17 -376.32,-294.15 -379.40,-295.36 -382.59,-296.27"/>
    </edge>
    <edge id=":39_5" function="internal">
        <lane id=":39_5_0" index="0" disallow="pedestrian tram rail_urban rail rail_electric rail_fast ship" speed="36.11" length="39.09" width="3.50" shape="-366.11,-275.17 -363.86,-294.60 -361.61,-314.00"/>
    </edge>
    <edge id=":40_0" function="internal">
        <lane id=":40_0_0" index="0" disallow="pedestrian tram rail_urban rail rail_electric rail_fast ship" speed="36.11" length="23.97" width="3.50" shape="-371.52,-198.49 -372.78,-187.25 -374.23,-174.67"/>
    </edge>
    <edge id=":40_1" function="internal">
        <lane id=":40_1_0" index="0" disallow="pedestrian tram rail_urban rail rail_electric rail_fast ship" speed="9.51" length="22.19" width="3.50" shape="-371.52,-198.49 -371.71,-198.26 -372.57,-196.75 -373.80,-195.58 -375.18,-194.80 -376.57,-194.33 -377.94,-194.06 -379.32,-193.93 -381.90,-193.95 -384.45,-194.21 -388.13,-194.87 -391.76,-195.75"/>
    </edge>
    <edge id=":40_2" function="internal">
        <lane id=":40_2_0" index="0" disallow="pedestrian tram rail_urban rail rail_electric rail_fast ship" speed="9.11" length="20.07" width="3.49" shape="-390.86,-199.13 -387.83,-198.38 -384.78,-197.77 -382.74,-197.48 -380.67,-197.33 -379.64,-197.33 -378.60,-197.40 -377.58,-197.58 -376.60,-197.90 -375.73,-198.45 -375.09,-199.25 -374.42,-202.69"/>
    </edge>
    <edge id=":40_3" function="internal">
        <lane id=":40_3_0" index="0" disallow="pedestrian tram rail_urban rail rail_electric rail_fast ship" speed="12.66" length="32.91" width="3.50" shape="-390.86,-199.13 -387.23,-197.96 -384.92,-196.94 -382.71,-195.70 -380.66,-194.21 -378.82,-192.47 -377.25,-190.49 -375.99,-188.30 -375.05,-185.95 -374.43,-183.50 -374.09,-180.99 -373.99,-178.46 -374.23,-174.67"/>
    </edge>
    <edge id=":40_4" function="internal">
        <lane id=":40_4_0" index="0" disallow="pedestrian tram rail_urban rail rail_electric rail_fast ship" speed="11.69" length="27.91" width="3.50" shape="-377.71,-175.04 -377.50,-178.39 -377.58,-180.55 -377.87,-182.68 -378.39,-184.74 -379.16,-186.68 -380.20,-188.49 -381.49,-190.12 -383.02,-191.56 -384.73,-192.80 -386.61,-193.85 -388.58,-194.72 -391.76,-195.75"/>
    </edge>
    <edge id=":40_5" function="internal">
        <lane id=":40_5_0" index="0" disallow="pedestrian tram rail_urban rail rail_electric rail_fast ship" speed="36.11" length="27.85" width="3.49" shape="-377.71,-175.04 -376.25,-187.66 -374.42,-202.69"/>
    </edge>

    <edge id="3242" from="39" to="29" priority="3" type="highway.residential" spreadType="center" length="60.87" shape="-370.53,-295.89 -354.60,-374.46">
        <lane id="3242_0" index="0" disallow="pedestrian tram rail_urban rail rail_electric rail_fast ship" speed="36.11" length="60.87" width="3.50" customShape="1" shape="-361.61,-314.00 -358.10,-344.24 -354.60,-374.46"/>
    </edge>
    <edge id="3243" from="36" to="39" priority="3" type="highway.residential" spreadType="center" length="60.92" shape="-351.12,-374.08 -367.10,-295.19">
        <lane id="3243_0" index="0" disallow="pedestrian tram rail_urban rail rail_electric rail_fast ship" speed="36.11" length="60.92" width="3.50" customShape="1" shape="-351.12,-374.08 -354.63,-343.84 -358.14,-313.57"/>
    </edge>
    <edge id="3245" from="38" to="39" priority="3" type="highway.residential" spreadType="center" length="7.97" shape="-376.03,-249.13 -370.54,-295.85">
        <lane id="3245_0" index="0" disallow="pedestrian tram rail_urban rail rail_electric rail_fast ship" speed="36.11" length="7.97" width="3.50" customShape="1" shape="-367.03,-267.27 -366.57,-271.22 -366.11,-275.19"/>
    </edge>
    <edge id="3246" from="39" to="38" priority="3" type="highway.residential" spreadType="center" length="8.00" shape="-367.07,-295.44 -372.55,-248.72">
        <lane id="3246_0" index="0" disallow="pedestrian tram rail_urban rail rail_electric rail_fast ship" speed="36.11" length="8.00" width="3.50" customShape="1" shape="-362.63,-274.79 -363.09,-270.81 -363.55,-266.84"/>
    </edge>
    <edge id="3248" from="37" to="38" priority="3" type="highway.residential" spreadType="center" length="3.06" shape="-367.61,-209.04 -376.02,-248.63">
        <lane id="3248_0" index="0" disallow="pedestrian tram rail_urban rail rail_electric rail_fast ship" speed="36.11" length="3.06" width="3.50" customShape="1" shape="-371.88,-225.39 -371.71,-226.91 -371.53,-228.43"/>
    </edge>
    <edge id="3249" from="38" to="37" priority="3" type="highway.residential" spreadType="center" length="3.07" shape="-372.60,-249.36 -364.19,-209.77">
        <lane id="3249_0" index="0" disallow="pedestrian tram rail_urban rail rail_electric rail_fast ship" speed="36.11" length="3.07" width="3.50" customShape="1" shape="-368.05,-228.03 -368.23,-226.51 -368.41,-224.98"/>
    </edge>
    <edge id="3251" from="40" to="37" priority="3" type="highway.residential" spreadType="center" length="0.20" shape="-381.58,-191.71 -367.28,-210.46">
        <lane id="3251_0" index="0" disallow="pedestrian tram rail_urban rail rail_electric rail_fast ship" speed="36.11" length="0.20" width="3.49" customShape="1" shape="-374.42,-202.69 -374.38,-202.89"/>
    </edge>
    <edge id="3252" from="37" to="40" priority="3" type="highway.residential" spreadType="center" length="0.20" shape="-364.51,-208.35 -378.81,-189.61">
        <lane id="3252_0" index="0" disallow="pedestrian tram rail_urban rail rail_electric rail_fast ship" speed="36.11" length="0.20" width="3.48" customShape="1" shape="-371.49,-198.69 -371.52,-198.49"/>
    </edge>
    <edge id="3254" from="34" to="40" priority="3" type="highway.residential" spreadType="center" length="70.03" shape="-385.77,-105.51 -381.86,-190.88">
        <lane id="3254_0" index="0" disallow="pedestrian tram rail_urban rail rail_electric rail_fast ship" speed="36.11" length="70.03" width="3.50" customShape="1" shape="-385.77,-105.51 -382.00,-138.09 -377.71,-175.07"/>
    </edge>
    <edge id="3255" from="40" to="26" priority="3" type="highway.residential" spreadType="center" length="70.01" shape="-378.36,-190.72 -382.29,-105.13">
        <lane id="3255_0" index="0" disallow="pedestrian tram rail_urban rail rail_electric rail_fast ship" speed="36.11" length="70.01" width="3.50" customShape="1" shape="-374.23,-174.67 -378.52,-137.69 -382.29,-105.13"/>
    </edge>
    <edge id="3315" from="39" to="31" priority="3" type="highway.residential" spreadType="center" length="70.01" shape="-369.17,-293.87 -450.62,-312.79">
        <lane id="3315_0" index="0" disallow="pedestrian tram rail_urban rail rail_electric rail_fast ship" speed="36.11" length="70.01" width="3.50" customShape="1" shape="-382.59,-296.27 -450.62,-312.79"/>
    </edge>
    <edge id="3316" from="35" to="39" priority="3" type="highway.residential" spreadType="center" length="70.01" shape="-449.80,-316.19 -368.38,-297.27">
        <lane id="3316_0" index="0" disallow="pedestrian tram rail_urban rail rail_electric rail_fast ship" speed="36.11" length="70.01" width="3.50" customShape="1" shape="-449.80,-316.19 -381.77,-299.67"/>
    </edge>
    <edge id="3442" from="17" to="38" priority="3" type="highway.residential" spreadType="center" length="70.00" shape="-454.99,-271.17 -373.83,-250.61">
        <lane id="3442_0" index="0" disallow="pedestrian tram rail_urban rail rail_electric rail_fast ship" speed="36.11" length="70.00" width="3.50" customShape="1" shape="-454.99,-271.17 -387.34,-253.18"/>
    </edge>
    <edge id="3443" from="38" to="3" priority="3" type="highway.residential" spreadType="center" length="70.00" shape="-374.68,-247.22 -455.89,-267.79">
        <lane id="3443_0" index="0" disallow="pedestrian tram rail_urban rail rail_electric rail_fast ship" speed="36.11" length="70.00" width="3.50" customShape="1" shape="-388.24,-249.80 -455.89,-267.79"/>
    </edge>
    <edge id="3564" from="33" to="40" priority="3" type="highway.residential" spreadType="center" length="70.00" shape="-458.50,-217.10 -379.56,-192.42">
        <lane id="3564_0" index="0" disallow="pedestrian tram rail_urban rail rail_electric rail_fast ship" speed="36.11" length="70.00" width="3.50" customShape="1" shape="-458.50,-217.10 -390.85,-199.12"/>
    </edge>
    <edge id="3565" from="40" to="27" priority="3" type="highway.residential" spreadType="center" length="70.00" shape="-380.60,-189.08 -459.41,-213.72">
        <lane id="3565_0" index="0" disallow="pedestrian tram rail_urban rail rail_electric rail_fast ship" speed="36.11" length="70.00" width="3.50" customShape="1" shape="-391.76,-195.75 -459.41,-213.72"/>
    </edge>
    <edge id="3856" from="37" to="16" priority="3" type="highway.residential" spreadType="center" length="70.00" shape="-365.44,-211.09 -286.12,-187.71">
        <lane id="3856_0" index="0" disallow="pedestrian tram rail_urban rail rail_electric rail_fast ship" speed="36.11" length="70.00" width="3.50" customShape="1" shape="-354.11,-204.37 -286.12,-187.71"/>
    </edge>
    <edge id="3857" from="28" to="37" priority="3" type="highway.residential" spreadType="center" length="70.00" shape="-286.97,-184.31 -366.43,-207.74">
        <lane id="3857_0" index="0" disallow="pedestrian tram rail_urban rail rail_electric rail_fast ship" speed="36.11" length="70.00" width="3.50" customShape="1" shape="-286.97,-184.31 -354.96,-200.98"/>
    </edge>

    <junction id="16" type="dead_end" x="-286.12" y="-187.71" incLanes="3856_0" intLanes="" shape="-285.71,-189.41 -286.54,-186.01" rightOfWay="edgePriority"/>
    <junction id="17" type="dead_end" x="-454.99" y="-271.17" incLanes="" intLanes="" shape="-455.44,-269.48 -454.54,-272.86" rightOfWay="edgePriority"/>
    <junction id="26" type="dead_end" x="-382.29" y="-105.13" incLanes="3255_0" intLanes="" shape="-380.56,-104.93 -384.03,-105.34" rightOfWay="edgePriority"/>
    <junction id="27" type="dead_end" x="-459.41" y="-213.72" incLanes="3565_0" intLanes="" shape="-459.86,-212.03 -458.96,-215.42" rightOfWay="edgePriority"/>
    <junction id="28" type="dead_end" x="-286.97" y="-184.31" incLanes="" intLanes="" shape="-286.56,-186.01 -287.39,-182.61" rightOfWay="edgePriority"/>
    <junction id="29" type="dead_end" x="-354.60" y="-374.46" incLanes="3242_0" intLanes="" shape="-356.34,-374.66 -352.87,-374.26" rightOfWay="edgePriority"/>
    <junction id="3" type="dead_end" x="-455.89" y="-267.79" incLanes="3443_0" intLanes="" shape="-456.34,-266.10 -455.44,-269.48" rightOfWay="edgePriority"/>
    <junction id="31" type="dead_end" x="-450.62" y="-312.79" incLanes="3315_0" intLanes="" shape="-451.03,-311.09 -450.20,-314.49" rightOfWay="edgePriority"/>
    <junction id="33" type="dead_end" x="-458.50" y="-217.10" incLanes="" intLanes="" shape="-458.95,-215.41 -458.05,-218.79" rightOfWay="edgePriority"/>
    <junction id="34" type="dead_end" x="-385.77" y="-105.51" incLanes="" intLanes="" shape="-384.04,-105.31 -387.51,-105.71" rightOfWay="edgePriority"/>
    <junction id="35" type="dead_end" x="-449.80" y="-316.19" incLanes="" intLanes="" shape="-450.21,-314.49 -449.39,-317.89" rightOfWay="edgePriority"/>
    <junction id="36" type="dead_end" x="-351.12" y="-374.08" incLanes="" intLanes="" shape="-352.86,-374.28 -349.39,-373.88" rightOfWay="edgePriority"/>
    <junction id="37" type="priority" x="-365.90" y="-209.40" incLanes="3857_0 3249_0 3251_0" intLanes=":37_0_0 :37_1_0 :37_2_0 :37_3_0 :37_4_0 :37_5_0" shape="-355.36,-199.27 -353.69,-206.07 -358.14,-207.59 -361.68,-209.76 -364.30,-212.55 -366.00,-215.99 -366.79,-220.07 -366.67,-224.78 -373.62,-225.59 -376.82,-198.05 -369.95,-197.21">
        <request index="0" response="001000" foes="001000" cont="0"/>
        <request index="1" response="111000" foes="111000" cont="0"/>
        <request index="2" response="000000" foes="100000" cont="0"/>
        <request index="3" response="000000" foes="100011" cont="0"/>
        <request index="4" response="000000" foes="000010" cont="0"/>
        <request index="5" response="001100" foes="001110" cont="0"/>
    </junction>
    <junction id="38" type="priority" x="-374.29" y="-248.92" incLanes="3248_0 3246_0 3442_0" intLanes=":38_0_0 :38_1_0 :38_2_0 :38_3_0 :38_4_0 :38_5_0" shape="-373.27,-228.63 -366.32,-227.83 -361.81,-266.67 -368.76,-267.47 -369.81,-262.43 -371.65,-258.56 -374.27,-255.88 -377.69,-254.37 -381.90,-254.03 -386.89,-254.88 -388.69,-248.11 -383.50,-246.31 -379.35,-243.92 -376.26,-240.96 -374.21,-237.43 -373.22,-233.32">
        <request index="0" response="000000" foes="001000" cont="0"/>
        <request index="1" response="000000" foes="111000" cont="0"/>
        <request index="2" response="000000" foes="100000" cont="0"/>
        <request index="3" response="000011" foes="100011" cont="0"/>
        <request index="4" response="000010" foes="000010" cont="0"/>
        <request index="5" response="001110" foes="001110" cont="0"/>
    </junction>
    <junction id="39" type="priority" x="-368.81" y="-295.58" incLanes="3243_0 3316_0 3245_0" intLanes=":39_0_0 :39_1_0 :39_2_0 :39_3_0 :39_4_0 :39_5_0" shape="-356.39,-313.39 -363.35,-314.20 -364.39,-309.20 -366.21,-305.34 -368.82,-302.63 -372.21,-301.06 -376.39,-300.65 -381.36,-301.37 -383.01,-294.57 -377.89,-292.90 -373.81,-290.62 -370.76,-287.73 -368.75,-284.22 -367.78,-280.11 -367.85,-275.39 -360.89,-274.59">
        <request index="0" response="000000" foes="001000" cont="0"/>
        <request index="1" response="110000" foes="111000" cont="0"/>
        <request index="2" response="100000" foes="100000" cont="0"/>
        <request index="3" response="100011" foes="100011" cont="0"/>
        <request index="4" response="000000" foes="000010" cont="0"/>
        <request index="5" response="000000" foes="001110" cont="0"/>
    </junction>
    <junction id="40" type="priority" x="-380.11" y="-190.76" incLanes="3252_0 3564_0 3254_0" intLanes=":40_0_0 :40_1_0 :40_2_0 :40_3_0 :40_4_0 :40_5_0" shape="-369.01,-204.37 -375.79,-205.20 -390.41,-200.82 -392.21,-194.05 -387.83,-192.46 -384.35,-190.26 -381.77,-187.43 -380.10,-184.00 -379.32,-179.94 -379.45,-175.27 -372.50,-174.47">
        <request index="0" response="000000" foes="001000" cont="0"/>
        <request index="1" response="110000" foes="111000" cont="0"/>
        <request index="2" response="100000" foes="100000" cont="0"/>
        <request index="3" response="100011" foes="100011" cont="0"/>
        <request index="4" response="000000" foes="000010" cont="0"/>
        <request index="5" response="000000" foes="001110" cont="0"/>
    </junction>

    <connection from="3243" to="3246" fromLane="0" toLane="0" contPos="-4.00" shape="-358.14,-313.57 -360.38,-294.19 -362.63,-274.79" via=":39_0_0" dir="s" state="M"/>
    <connection from="3243" to="3315" fromLane="0" toLane="0" contPos="-4.00" shape="-358.14,-313.57 -358.77,-309.74 -359.47,-307.17 -360.43,-304.65 -361.71,-302.27 -362.53,-301.10 -363.43,-300.03 -364.44,-299.04 -365.56,-298.15 -366.75,-297.38 -368.02,-296.73 -369.33,-296.22 -370.67,-295.83 -372.03,-295.56 -373.42,-295.39 -376.09,-295.33 -378.75,-295.55 -382.59,-296.27" via=":39_1_0" dir="l" state="m"/>
    <connection from="3245" to="3315" fromLane="0" toLane="0" contPos="-4.00" shape="-366.11,-275.17 -365.94,-277.37 -365.95,-279.53 -366.17,-281.65 -366.62,-283.71 -367.33,-285.67 -368.29,-287.51 -369.51,-289.19 -370.96,-290.69 -372.61,-292.02 -374.41,-293.17 -376.32,-294.15 -379.40,-295.36 -382.59,-296.27" via=":39_4_0" dir="r" state="M"/>
    <connection from="3245" to="3242" fromLane="0" toLane="0" contPos="-4.00" shape="-366.11,-275.17 -363.86,-294.60 -361.61,-314.00" via=":39_5_0" dir="s" state="M"/>
    <connection from="3246" to="3249" fromLane="0" toLane="0" contPos="-4.00" shape="-363.55,-266.84 -365.81,-247.42 -368.05,-228.03" via=":38_2_0" dir="s" state="M"/>
    <connection from="3246" to="3443" fromLane="0" toLane="0" contPos="-4.00" shape="-363.55,-266.84 -364.23,-262.77 -364.94,-260.12 -365.93,-257.55 -366.54,-256.32 -367.24,-255.14 -368.03,-254.02 -368.92,-252.98 -369.91,-252.03 -371.00,-251.18 -372.16,-250.45 -373.40,-249.85 -374.68,-249.38 -376.01,-249.03 -377.36,-248.79 -380.10,-248.61 -382.85,-248.77 -385.56,-249.18 -388.24,-249.80" via=":38_3_0" dir="l" state="m"/>
    <connection from="3248" to="3443" fromLane="0" toLane="0" contPos="-4.00" shape="-371.53,-228.41 -371.37,-230.56 -371.40,-232.71 -371.65,-234.85 -372.15,-236.95 -372.92,-238.96 -373.95,-240.85 -375.25,-242.58 -376.75,-244.11 -378.44,-245.46 -380.25,-246.63 -382.16,-247.63 -385.15,-248.85 -388.24,-249.80" via=":38_0_0" dir="r" state="M"/>
    <connection from="3248" to="3245" fromLane="0" toLane="0" contPos="-4.00" shape="-371.53,-228.41 -369.28,-247.82 -367.03,-267.27" via=":38_1_0" dir="s" state="M"/>
    <connection from="3249" to="3856" fromLane="0" toLane="0" contPos="-4.00" shape="-368.40,-225.01 -368.61,-221.78 -368.52,-219.63 -368.23,-217.49 -367.70,-215.40 -366.89,-213.40 -365.80,-211.54 -364.44,-209.86 -362.85,-208.40 -361.09,-207.16 -359.19,-206.14 -357.19,-205.31 -354.11,-204.37" via=":37_2_0" dir="r" state="M"/>
    <connection from="3249" to="3252" fromLane="0" toLane="0" contPos="-4.00" shape="-368.40,-225.01 -369.85,-212.55 -371.29,-200.09" via=":37_3_0" dir="l" state="M"/>
    <connection from="3251" to="3248" fromLane="0" toLane="0" contPos="-4.00" shape="-374.74,-200.59 -373.32,-212.95 -371.88,-225.39" via=":37_4_0" dir="r" state="M"/>