<routes>
	<vehicle depart="0.1" departLane="0" departPos="17.54403857491398" departSpeed="1.2793551" id="324" type="bus">
		<route edges=":67_3 6011"/>
	</vehicle>
	<vehicle depart="0.1" departLane="0" departPos="33.741952682442744" departSpeed="9.1243571" id="37" type="passenger">
		<route edges="6014 4782"/>
	</vehicle>
	<vehicle depart="0.1" departLane="0" departPos="27.69434424928214" departSpeed="0.30987418" id="340" type="passenger">
		<route edges="4781 6011"/>
	</vehicle>
	<vehicle depart="0.1" departLane="0" departPos="13.196776960067115" departSpeed="0.26172808" id="350" type="passenger">
		<route edges="4781 6011"/>
	</vehicle>
	<vehicle depart="0.1" departLane="0" departPos="5.177091853837084" departSpeed="6.0787689" id="360" type="passenger">
		<route edges="6015 5442"/>
	</vehicle>
	<vehicle depart="0.1" departLane="0" departPos="24.110556384858537" departSpeed="4.5974353" id="363" type="passenger">
		<route edges=":67_5 6015 5442"/>
	</vehicle>
	<vehicle depart="0.1" departLane="0" departPos="59.44906574742418" departSpeed="0.0" id="364" type="passenger">
		<route edges="6012 6015"/>
	</vehicle>
	<vehicle depart="0.1" departLane="0" departPos="50.55507377783681" departSpeed="1.3872679" id="366" type="passenger">
		<route edges="6012 6015"/>
	</vehicle>
	<vehicle depart="0.1" departLane="0" departPos="30.19276807960136" departSpeed="1.2210625" id="328" type="motorcycle">
		<route edges="4781 6011"/>
	</vehicle>
</routes>
