<!-- generated on Tue Feb  9 22:20:59 2021 by Eclipse SUMO netconvert Version 1.8.0
<configuration xmlns:xsi="http://www.w3.org/2001/XMLSchema-instance" xsi:noNamespaceSchemaLocation="http://sumo.dlr.de/xsd/netconvertConfiguration.xsd">

    <input>
        <node-files value="./converted_scenarios/scenario-factory/ESP_SantBoideLlobregat-11_5_I-1-1/ESP_SantBoideLlobregat-11_5_I-1-1.nod.xml"/>
        <edge-files value="./converted_scenarios/scenario-factory/ESP_SantBoideLlobregat-11_5_I-1-1/ESP_SantBoideLlobregat-11_5_I-1-1.edg.xml"/>
        <connection-files value="./converted_scenarios/scenario-factory/ESP_SantBoideLlobregat-11_5_I-1-1/ESP_SantBoideLlobregat-11_5_I-1-1.con.xml"/>
        <tllogic-files value="./converted_scenarios/scenario-factory/ESP_SantBoideLlobregat-11_5_I-1-1/ESP_SantBoideLlobregat-11_5_I-1-1.tll.xml"/>
        <type-files value="/home/zen/commonroad-interactive-benchmarks/install/commonroad-map-tool/crmapconverter/sumo_map/templates/DEU.typ.xml"/>
    </input>

    <output>
        <output-file value="./converted_scenarios/scenario-factory/ESP_SantBoideLlobregat-11_5_I-1-1/ESP_SantBoideLlobregat-11_5_I-1-1.net.xml"/>
    </output>

    <processing>
        <geometry.remove.keep-edges.explicit value="true"/>
        <geometry.avoid-overlap value="true"/>
        <offset.disable-normalization value="true"/>
    </processing>

    <junctions>
        <no-turnarounds value="true"/>
        <junctions.internal-link-detail value="20"/>
    </junctions>

    <report>
        <aggregate-warnings value="5"/>
    </report>

    <random_number>
        <seed value="1234"/>
    </random_number>

</configuration>
--><net xmlns:xsi="http://www.w3.org/2001/XMLSchema-instance" version="1.6" junctionCornerDetail="5" junctionLinkDetail="20" limitTurnSpeed="5.50" xsi:noNamespaceSchemaLocation="http://sumo.dlr.de/xsd/net_file.xsd">

    <location netOffset="0.00,0.00" convBoundary="-1026.14,-189.49,-918.48,-84.78" origBoundary="-1026.14,-189.49,-918.48,-84.26" projParameter="!"/>

    <type id="highway.bridleway" priority="1" speed="2.78" allow="pedestrian" oneway="1" width="2.00"/>
    <type id="highway.bus_guideway" priority="1" speed="27.78" allow="bus" oneway="1"/>
    <type id="highway.cycleway" priority="1" speed="8.33" allow="bicycle" oneway="0" width="1.00"/>
    <type id="highway.footway" priority="1" speed="2.78" allow="pedestrian" oneway="1" width="2.00"/>
    <type id="highway.ford" priority="1" speed="2.78" allow="army" oneway="0"/>
    <type id="highway.living_street" priority="2" speed="2.78" disallow="tram rail_urban rail rail_electric rail_fast ship" oneway="0"/>
    <type id="highway.motorway" priority="14" speed="39.44" allow="private emergency authority army vip passenger hov taxi bus coach delivery truck trailer motorcycle evehicle custom1 custom2" oneway="1"/>
    <type id="highway.motorway_link" priority="9" speed="22.22" allow="private emergency authority army vip passenger hov taxi bus coach delivery truck trailer motorcycle evehicle custom1 custom2" oneway="1"/>
    <type id="highway.path" priority="1" speed="2.78" allow="pedestrian bicycle" oneway="0" width="2.00"/>
    <type id="highway.pedestrian" priority="1" speed="2.78" allow="pedestrian" oneway="1" width="2.00"/>
    <type id="highway.primary" priority="12" speed="27.78" disallow="pedestrian tram rail_urban rail rail_electric rail_fast ship" oneway="0"/>
    <type id="highway.primary_link" priority="7" speed="22.22" disallow="pedestrian tram rail_urban rail rail_electric rail_fast ship" oneway="0"/>
    <type id="highway.raceway" priority="15" speed="83.33" allow="vip" oneway="0"/>
    <type id="highway.residential" priority="3" speed="13.89" disallow="pedestrian tram rail_urban rail rail_electric rail_fast ship" oneway="0"/>
    <type id="highway.secondary" priority="11" speed="27.78" disallow="pedestrian tram rail_urban rail rail_electric rail_fast ship" oneway="0"/>
    <type id="highway.secondary_link" priority="6" speed="22.22" disallow="pedestrian tram rail_urban rail rail_electric rail_fast ship" oneway="0"/>
    <type id="highway.service" priority="1" speed="5.56" allow="pedestrian delivery bicycle" oneway="0"/>
    <type id="highway.stairs" priority="1" speed="1.39" allow="pedestrian" oneway="1" width="2.00"/>
    <type id="highway.step" priority="1" speed="1.39" allow="pedestrian" oneway="1" width="2.00"/>
    <type id="highway.steps" priority="1" speed="1.39" allow="pedestrian" oneway="1" width="2.00"/>
    <type id="highway.tertiary" priority="10" speed="22.22" disallow="pedestrian tram rail_urban rail rail_electric rail_fast ship" oneway="0"/>
    <type id="highway.tertiary_link" priority="5" speed="22.22" disallow="pedestrian tram rail_urban rail rail_electric rail_fast ship" oneway="0"/>
    <type id="highway.track" priority="1" speed="5.56" allow="pedestrian motorcycle moped bicycle" oneway="0"/>
    <type id="highway.trunk" priority="13" speed="27.78" disallow="pedestrian bicycle tram rail_urban rail rail_electric rail_fast ship" oneway="0"/>
    <type id="highway.trunk_link" priority="8" speed="22.22" disallow="pedestrian bicycle tram rail_urban rail rail_electric rail_fast ship" oneway="0"/>
    <type id="highway.unclassified" priority="4" speed="13.89" disallow="pedestrian tram rail_urban rail rail_electric rail_fast ship" oneway="0"/>
    <type id="highway.unsurfaced" priority="1" speed="8.33" disallow="tram rail_urban rail rail_electric rail_fast ship" oneway="0"/>
    <type id="railway.highspeed" priority="21" speed="69.44" allow="rail_fast" oneway="1"/>
    <type id="railway.light_rail" priority="19" speed="27.78" allow="rail_urban" oneway="1"/>
    <type id="railway.preserved" priority="16" speed="27.78" allow="rail" oneway="1"/>
    <type id="railway.rail" priority="20" speed="44.44" allow="rail" oneway="1"/>
    <type id="railway.subway" priority="18" speed="27.78" allow="rail_urban" oneway="1"/>
    <type id="railway.tram" priority="17" speed="13.89" allow="tram" oneway="1"/>

    <edge id=":10_0" function="internal">
        <lane id=":10_0_0" index="0" disallow="pedestrian tram rail_urban rail rail_electric rail_fast ship" speed="36.11" length="0.10" width="3.50" shape="-1006.14,-92.36 -1006.14,-92.36"/>
    </edge>
    <edge id=":12_0" function="internal">
        <lane id=":12_0_0" index="0" disallow="pedestrian tram rail_urban rail rail_electric rail_fast ship" speed="36.11" length="40.00" width="3.50" shape="-957.94,-142.51 -962.81,-136.68 -968.63,-129.02 -978.49,-115.52 -982.23,-110.75"/>
    </edge>
    <edge id=":12_1" function="internal">
        <lane id=":12_1_0" index="0" disallow="pedestrian tram rail_urban rail rail_electric rail_fast ship" speed="12.10" length="19.45" width="3.50" shape="-977.67,-136.52 -974.16,-137.13 -971.10,-137.99 -968.15,-139.17 -965.82,-140.43 -963.65,-141.93 -961.66,-143.67 -960.56,-144.83"/>
    </edge>
    <edge id=":12_2" function="internal">
        <lane id=":12_2_0" index="0" disallow="pedestrian tram rail_urban rail rail_electric rail_fast ship" speed="8.44" length="21.96" width="3.50" shape="-978.73,-130.35 -978.27,-129.90 -977.10,-128.21 -976.54,-126.95 -976.19,-125.62 -976.05,-123.56 -976.32,-121.51 -976.90,-119.53 -978.01,-117.01 -979.77,-114.06 -982.23,-110.75"/>
    </edge>
    <edge id=":12_3" function="internal">
        <lane id=":12_3_0" index="0" disallow="pedestrian tram rail_urban rail rail_electric rail_fast ship" speed="10.72" length="36.44" width="3.50" shape="-995.73,-137.28 -991.61,-136.42 -988.25,-135.42 -985.66,-134.35 -983.81,-133.35 -982.12,-132.11 -980.67,-130.59 -979.91,-129.42 -979.36,-128.13 -979.05,-126.76 -978.98,-125.37 -979.24,-123.28 -979.84,-121.27 -981.01,-118.72 -982.85,-115.74 -984.96,-112.93"/>
    </edge>
    <edge id=":12_4" function="internal">
        <lane id=":12_4_0" index="0" disallow="pedestrian tram rail_urban rail rail_electric rail_fast ship" speed="36.11" length="40.21" width="3.50" shape="-987.67,-115.14 -982.07,-121.73 -974.46,-129.95 -963.28,-141.80 -960.56,-144.83"/>
    </edge>

    <edge id="125293" from="12" to="9" priority="3" type="highway.residential" spreadType="center" length="34.09" shape="-974.13,-128.47 -1005.05,-85.36">
        <lane id="125293_0" index="0" disallow="pedestrian tram rail_urban rail rail_electric rail_fast ship" speed="36.11" length="34.09" width="3.50" customShape="1" shape="-982.23,-110.75 -982.31,-110.64 -982.39,-110.54 -991.55,-99.25 -1000.70,-87.95 -1002.20,-86.10 -1003.69,-84.26"/>
        <lane id="125293_1" index="1" disallow="pedestrian tram rail_urban rail rail_electric rail_fast ship" speed="36.11" length="34.09" width="3.50" customShape="1" shape="-984.95,-112.95 -985.03,-112.84 -985.11,-112.75 -994.27,-101.45 -1003.42,-90.15 -1004.92,-88.31 -1006.41,-86.46"/>
    </edge>
    <edge id="125295" from="11" to="10" priority="3" type="highway.residential" spreadType="center" length="9.75">
        <lane id="125295_0" index="0" disallow="pedestrian tram rail_urban rail rail_electric rail_fast ship" speed="36.11" length="9.75" width="3.50" customShape="1" shape="-1012.28,-84.78 -1009.13,-88.66 -1007.64,-90.51 -1006.14,-92.36"/>
    </edge>
    <edge id="125299" from="10" to="12" priority="3" type="highway.residential" spreadType="center" length="29.33" shape="-1006.14,-92.36 -978.49,-131.38">
        <lane id="125299_0" index="0" disallow="pedestrian tram rail_urban rail rail_electric rail_fast ship" speed="36.11" length="29.33" width="3.50" customShape="1" shape="-1006.14,-92.36 -996.99,-103.65 -987.83,-114.95 -987.75,-115.05 -987.67,-115.15"/>
    </edge>
    <edge id="126031" from="6" to="12" priority="3" type="highway.residential" spreadType="center" length="59.60" shape="-918.48,-187.18 -975.88,-129.06">
        <lane id="126031_0" index="0" disallow="pedestrian tram rail_urban rail rail_electric rail_fast ship" speed="36.11" length="59.60" width="3.50" customShape="1" shape="-918.48,-187.18 -938.22,-164.84 -957.94,-142.51"/>
    </edge>
    <edge id="126032" from="12" to="3" priority="3" type="highway.residential" spreadType="center" length="59.58" shape="-978.37,-131.52 -921.12,-189.49">
        <lane id="126032_0" index="0" disallow="pedestrian tram rail_urban rail rail_electric rail_fast ship" speed="36.11" length="59.58" width="3.50" customShape="1" shape="-960.56,-144.83 -940.84,-167.16 -921.12,-189.49"/>
    </edge>
    <edge id="126091" from="5" to="12" priority="3" type="highway.residential" spreadType="center" length="48.78">
        <lane id="126091_0" index="0" disallow="pedestrian tram rail_urban rail rail_electric rail_fast ship" speed="36.11" length="48.78" width="3.50" customShape="1" shape="-1026.14,-142.50 -1010.94,-139.89 -978.06,-134.25"/>
    </edge>

    <junction id="10" type="priority" x="-1006.14" y="-92.36" incLanes="125295_0" intLanes=":10_0_0" shape="-1004.78,-91.25 -1007.50,-93.46 -1004.78,-91.25" rightOfWay="edgePriority">
        <request index="0" response="0" foes="0" cont="0"/>
    </junction>
    <junction id="11" type="dead_end" x="-1012.28" y="-84.78" incLanes="" intLanes="" shape="-1010.92,-83.68 -1013.64,-85.88" rightOfWay="edgePriority"/>
    <junction id="12" type="priority" x="-977.10" y="-130.32" incLanes="126031_0 126091_0 125299_0" intLanes=":12_0_0 :12_1_0 :12_2_0 :12_3_0 :12_4_0" shape="-956.63,-141.35 -961.87,-145.99 -965.03,-142.63 -967.98,-139.95 -970.73,-137.95 -973.28,-136.62 -975.62,-135.96 -977.77,-135.97 -978.36,-132.52 -978.78,-130.02 -980.44,-127.41 -982.82,-124.12 -985.74,-120.34 -989.03,-116.24 -980.86,-109.65">
        <request index="0" response="00000" foes="01100" cont="0"/>
        <request index="1" response="10000" foes="10000" cont="0"/>
        <request index="2" response="10001" foes="10001" cont="0"/>
        <request index="3" response="10001" foes="10001" cont="0"/>
        <request index="4" response="00000" foes="01110" cont="0"/>
    </junction>
    <junction id="3" type="dead_end" x="-921.12" y="-189.49" incLanes="126032_0" intLanes="" shape="-922.43,-190.64 -919.80,-188.33" rightOfWay="edgePriority"/>
    <junction id="5" type="dead_end" x="-1026.14" y="-142.50" incLanes="" intLanes="" shape="-1026.44,-140.78 -1025.85,-144.23" rightOfWay="edgePriority"/>
    <junction id="6" type="dead_end" x="-918.48" y="-187.18" incLanes="" intLanes="" shape="-919.79,-188.34 -917.17,-186.02" rightOfWay="edgePriority"/>
    <junction id="9" type="dead_end" x="-1005.05" y="-85.36" incLanes="125293_0 125293_1" intLanes="" shape="-1002.33,-83.16 -1007.77,-87.56" rightOfWay="edgePriority"/>

    <connection from="125295" to="125299" fromLane="0" toLane="0" contPos="-4.00" via=":10_0_0" dir="s" state="M"/>
    <connection from="125299" to="126032" fromLane="0" toLane="0" contPos="-4.00" shape="-987.67,-115.14 -982.07,-121.73 -974.46,-129.95 -963.28,-141.80 -960.56,-144.83" via=":12_4_0" dir="s" state="M"/>
    <connection from="126031" to="125293" fromLane="0" toLane="0" contPos="-4.00" shape="-957.94,-142.51 -962.81,-136.68 -968.63,-129.02 -978.49,-115.52 -982.23,-110.75" via=":12_0_0" dir="s" state="M"/>
    <connection from="126091" to="126032" fromLane="0" toLane="0" contPos="-4.00" shape="-995.73,-137.28 -990.48,-136.54 -985.73,-136.19 -981.50,-136.20 -977.81,-136.50 -974.16,-137.13 -971.10,-137.99 -968.15,-139.17 -965.82,-140.43 -963.65,-141.93 -961.66,-143.67 -960.56,-144.83" via=":12_1_0" dir="r" state="m"/>
    <connection from="126091" to="125293" fromLane="0" toLane="0" contPos="-4.00" shape="-995.73,-137.28 -991.00,-136.30 -987.04,-135.15 -983.84,-133.87 -981.42,-132.56 -979.75,-131.35 -978.27,-129.90 -977.10,-128.21 -976.54,-126.95 -976.19,-125.62 -976.05,-123.56 -976.32,-121.51 -976.90,-119.53 -978.01,-117.01 -979.77,-114.06 -982.23,-110.75" via=":12_2_0" dir="l" state="m"/>
    <connection from="126091" to="125293" fromLane="0" toLane="1" contPos="-4.00" shape="-995.73,-137.28 -991.61,-136.42 -988.25,-135.42 -985.66,-134.35 -983.81,-133.35 -982.12,-132.11 -980.67,-130.59 -979.91,-129.42 -979.36,-128.13 -979.05,-126.76 -978.98,-125.37 -979.24,-123.28 -979.84,-121.27 -981.01,-118.72 -982.85,-115.74 -984.96,-112.93" via=":12_3_0" dir="l" state="m"/>

    <connection from=":10_0" to="125299" fromLane="0" toLane="0" dir="s" state="M"/>
    <connection from=":12_0" to="125293" fromLane="0" toLane="0" dir="s" state="M"/>
    <connection from=":12_1" to="126032" fromLane="0" toLane="0" dir="r" state="M"/>
    <connection from=":12_2" to="125293" fromLane="0" toLane="0" dir="l" state="M"/>
    <connection from=":12_3" to="125293" fromLane="0" toLane="1" dir="l" state="M"/>
    <connection from=":12_4" to="126032" fromLane="0" toLane="0" dir="s" state="M"/>

</net>