<routes>
	<vehicle depart="0.1" departLane="0" departPos="59.35552559574341" departSpeed="1.6463664" id="328" type="bus">
		<route edges="126031 125293"/>
	</vehicle>
	<vehicle depart="0.1" departLane="0" departPos="21.875438755782813" departSpeed="0.76345197" id="32" type="passenger">
		<route edges=":12_1 126032"/>
	</vehicle>
	<vehicle depart="0.1" departLane="0" departPos="12.686188450053212" departSpeed="0.60549113" id="33" type="passenger">
		<route edges=":12_3 125293"/>
	</vehicle>
	<vehicle depart="0.1" departLane="0" departPos="4.8093334493046855" departSpeed="0.080162595" id="35" type="passenger">
		<route edges=":12_2 125293"/>
	</vehicle>
	<vehicle depart="0.1" departLane="0" departPos="2.5" departSpeed="13.385554" id="325" type="passenger">
		<route edges="126032"/>
	</vehicle>
	<vehicle depart="0.1" departLane="0" departPos="8.24027432497502" departSpeed="9.5938262" id="329" type="passenger">
		<route edges="125299 126032"/>
	</vehicle>
</routes>
