<!-- generated on 2020-12-18 15:55:22.300870 by ipykernel_launcher.py v1_2_0+5214-53edc58fcd
-->
<nodes>
	<node id="1" type="from" x="-23.560759999999995" y="27.31862"/>
	<node id="2" type="to" x="47.75241" y="-38.132079999999995"/>
	<node id="3" type="to" x="97.197225" y="-83.79542500000001"/>
	<node id="4" type="from" x="-34.995149999999995" y="15.06115"/>
</nodes>
