<?xml version="1.0" encoding="UTF-8"?>

<!-- generated on Fri Dec 18 15:55:22 2020 by Eclipse SUMO netconvert Version 1.8.0
<configuration xmlns:xsi="http://www.w3.org/2001/XMLSchema-instance" xsi:noNamespaceSchemaLocation="http://sumo.dlr.de/xsd/netconvertConfiguration.xsd">

    <input>
        <node-files value="./converted_scenarios/NGSIM/US101/USA_US101-15_3_I-1-1/nodes.net.xml"/>
        <edge-files value="./converted_scenarios/NGSIM/US101/USA_US101-15_3_I-1-1/edges.net.xml"/>
        <connection-files value="./converted_scenarios/NGSIM/US101/USA_US101-15_3_I-1-1/_connections.net.xml"/>
        <tllogic-files value="./converted_scenarios/NGSIM/US101/USA_US101-15_3_I-1-1/_tll.net.xml"/>
    </input>

    <output>
        <output-file value="./converted_scenarios/NGSIM/US101/USA_US101-15_3_I-1-1/USA_US101-15_3_I-1-1.net.xml"/>
    </output>

    <processing>
        <plain.extend-edge-shape value="true"/>
        <geometry.remove.keep-edges.explicit value="true"/>
        <geometry.avoid-overlap value="true"/>
        <offset.disable-normalization value="true"/>
    </processing>

    <junctions>
        <no-turnarounds value="true"/>
        <junctions.internal-link-detail value="20"/>
    </junctions>

    <report>
        <aggregate-warnings value="5"/>
    </report>

    <random_number>
        <seed value="1234"/>
    </random_number>

</configuration>
-->

<net version="1.6" junctionCornerDetail="5" junctionLinkDetail="20" limitTurnSpeed="5.50" xmlns:xsi="http://www.w3.org/2001/XMLSchema-instance" xsi:noNamespaceSchemaLocation="http://sumo.dlr.de/xsd/net_file.xsd">

    <location netOffset="0.00,0.00" convBoundary="-35.00,-83.80,97.20,27.32" origBoundary="-35.00,-90.42,102.83,32.29" projParameter="!"/>

    <edge id=":2_0" function="internal">
        <lane id=":2_0_0" index="0" disallow="bus rail_fast" speed="36.11" length="29.90" width="3.74" shape="19.21,-27.66 41.96,-47.06"/>
    </edge>
    <edge id=":2_1" function="internal">
        <lane id=":2_1_0" index="0" disallow="bus truck rail_fast" speed="36.11" length="3.00" width="3.50" shape="42.15,-42.27 44.42,-44.24"/>
        <lane id=":2_1_1" index="1" disallow="bus truck rail_fast" speed="36.11" length="3.00" width="3.22" shape="44.44,-39.64 46.66,-41.66"/>
        <lane id=":2_1_2" index="2" disallow="bus rail_fast" speed="36.11" length="3.00" width="3.12" shape="46.63,-37.12 48.85,-39.13"/>
        <lane id=":2_1_3" index="3" disallow="bus truck rail_fast" speed="36.11" length="3.00" width="3.27" shape="48.82,-34.60 51.09,-36.56"/>
        <lane id=":2_1_4" index="4" disallow="bus truck rail_fast" speed="36.11" length="3.00" width="3.48" shape="51.04,-32.05 53.33,-33.98"/>
    </edge>

    <edge id="16" from="2" to="3" priority="1" spreadType="center" length="67.28">
        <lane id="16_0" index="0" disallow="bus rail_fast" speed="36.11" length="67.28" width="3.74" acceleration="1" customShape="1" shape="41.96,-47.06 42.98,-47.94 43.70,-48.58 46.37,-50.90 47.10,-51.54 49.80,-53.92 50.52,-54.57 53.24,-56.95 53.96,-57.60 56.63,-59.91 57.36,-60.56 58.08,-61.19 60.09,-62.93 60.81,-63.58 63.49,-65.94 64.22,-66.59 66.97,-68.99 67.69,-69.63 70.26,-71.86 70.98,-72.50 73.70,-74.84 74.42,-75.48 77.27,-77.99 77.99,-78.64 80.65,-80.99 81.37,-81.64 84.19,-84.06 84.91,-84.71 87.54,-87.01 88.26,-87.66 90.97,-90.02 91.34,-90.35"/>
        <lane id="16_1" index="1" disallow="bus truck rail_fast" speed="36.11" length="67.28" width="3.50" customShape="1" shape="44.42,-44.24 45.47,-45.17 46.18,-45.83 46.82,-46.40 48.66,-47.93 49.32,-48.48 49.43,-48.57 50.02,-49.07 50.21,-49.24 52.30,-51.13 53.02,-51.80 53.11,-51.88 55.68,-54.13 56.36,-54.74 59.08,-57.11 59.75,-57.70 60.28,-58.17 62.55,-60.20 63.19,-60.79 69.35,-66.09 70.02,-66.68 70.12,-66.77 71.03,-67.54 72.76,-69.09 73.48,-69.75 73.99,-70.20 76.14,-72.03 76.80,-72.62 79.68,-75.15 80.37,-75.76 82.03,-77.22 83.14,-78.24 83.85,-78.89 85.01,-79.91 86.60,-81.27 87.25,-81.84 89.95,-84.18 90.61,-84.77 93.01,-86.85 93.42,-87.21 93.87,-87.61"/>
        <lane id="16_2" index="2" disallow="bus truck rail_fast" speed="36.11" length="67.28" width="3.22" customShape="1" shape="46.66,-41.66 47.05,-42.02 48.92,-43.68 49.08,-43.82 52.46,-46.59 54.98,-48.83 55.09,-48.92 55.46,-49.27 58.08,-51.63 62.54,-55.48 65.41,-58.04 65.53,-58.14 66.16,-58.68 66.24,-58.75 69.14,-61.32 73.32,-64.87 76.17,-67.42 76.27,-67.50 77.27,-68.37 80.22,-71.02 84.33,-74.54 87.19,-77.09 87.30,-77.18 88.41,-78.14 91.37,-80.78 95.34,-84.25 96.16,-84.98"/>
        <lane id="16_3" index="3" disallow="bus rail_fast" speed="36.11" length="67.28" width="3.12" customShape="1" shape="48.85,-39.13 49.22,-39.47 49.32,-39.55 52.20,-42.04 55.16,-44.67 57.30,-46.47 60.13,-48.99 60.25,-49.09 63.26,-51.65 66.22,-54.29 68.36,-56.14 71.23,-58.72 71.32,-58.80 74.38,-61.46 77.33,-64.10 79.37,-65.82 82.24,-68.34 82.37,-68.45 85.50,-71.09 88.47,-73.72 90.63,-75.58 93.49,-78.16 96.74,-81.02 98.36,-82.50"/>
        <lane id="16_4" index="4" disallow="bus truck rail_fast" speed="36.11" length="67.28" width="3.27" customShape="1" shape="51.09,-36.56 54.28,-39.31 54.47,-39.48 57.14,-41.97 57.33,-42.14 65.47,-49.08 65.64,-49.23 68.42,-51.82 68.58,-51.97 76.59,-58.84 79.45,-61.51 87.70,-68.56 87.82,-68.67 90.63,-71.29 90.76,-71.40 98.91,-78.40 99.03,-78.51 100.61,-79.98"/>
        <lane id="16_5" index="5" disallow="bus truck rail_fast" speed="36.11" length="67.28" width="3.48" customShape="1" shape="53.33,-33.98 56.54,-36.69 56.77,-36.89 56.89,-37.00 59.51,-39.43 59.86,-39.75 67.93,-46.68 68.17,-46.89 68.27,-46.99 70.88,-49.42 71.25,-49.74 78.89,-56.17 79.12,-56.37 79.24,-56.49 81.85,-58.92 82.19,-59.22 90.09,-66.16 90.34,-66.39 90.42,-66.46 93.03,-68.89 93.39,-69.21 101.15,-75.79 101.39,-76.00 101.51,-76.11 102.91,-77.41"/>
    </edge>
    <edge id="17" from="4" to="2" priority="1" spreadType="center" length="97.44">
        <lane id="17_0" index="0" disallow="rail_fast" speed="36.11" length="97.44" width="3.64" customShape="1" shape="-35.00,15.06 -34.06,14.45 -32.18,13.24 -31.06,12.46 -25.43,8.35 -24.02,7.28 -16.09,1.20 -9.66,-3.93 -4.53,-8.11 3.19,-14.39 4.85,-15.76 13.40,-22.86 19.21,-27.66"/>
    </edge>
    <edge id="20" from="1" to="2" priority="1" spreadType="center" length="96.59">
        <lane id="20_0" index="0" disallow="bus truck rail_fast" speed="36.11" length="96.59" width="3.45" customShape="1" shape="-28.38,22.49 -20.96,15.43 -18.12,12.67 -10.62,5.66 -7.78,2.89 -3.24,-1.35 0.28,-4.60 3.18,-7.29 10.99,-14.41 11.58,-14.94 13.94,-17.12 21.24,-23.73 22.04,-24.46 24.96,-27.18 28.02,-29.93 32.84,-34.10 35.79,-36.74 37.33,-38.08 42.15,-42.27"/>
        <lane id="20_1" index="1" disallow="bus rail_fast" speed="36.11" length="96.59" width="3.25" customShape="1" shape="-25.94,24.94 -20.85,20.15 -18.55,17.90 -18.05,17.40 -15.79,15.21 -10.28,10.09 -8.22,8.12 -7.48,7.38 -5.49,5.48 0.52,-0.03 2.66,-2.02 3.42,-2.73 5.55,-4.69 11.20,-9.82 13.40,-11.84 14.09,-12.48 16.27,-14.47 22.40,-19.99 24.48,-21.89 25.30,-22.65 27.34,-24.51 33.16,-29.63 35.20,-31.46 36.05,-32.26 38.05,-34.06 44.16,-39.39 44.44,-39.64"/>
        <lane id="20_2" index="2" disallow="rail_fast" speed="36.11" length="96.59" width="3.19" customShape="1" shape="-23.56,27.32 -21.63,25.47 -18.55,22.57 -15.74,19.83 -13.87,18.07 -11.03,15.31 -8.04,12.53 -5.22,9.83 -2.97,7.75 -0.11,5.02 2.76,2.43 5.66,-0.24 8.28,-2.61 11.19,-5.29 13.43,-7.34 16.34,-10.01 19.06,-12.47 21.99,-15.14 24.63,-17.51 27.54,-20.16 30.10,-22.45 33.03,-25.12 35.29,-27.09 38.22,-29.69 40.98,-32.07 43.92,-34.73 46.36,-36.87 46.63,-37.12"/>
        <lane id="20_3" index="3" disallow="bus rail_fast" speed="36.11" length="96.59" width="3.21" customShape="1" shape="-21.18,29.70 -19.33,27.85 -19.08,27.62 -11.57,20.55 -11.41,20.39 -8.71,17.70 -8.51,17.51 -0.69,10.22 2.11,7.52 2.29,7.35 10.28,0.10 10.55,-0.15 13.16,-2.58 13.43,-2.83 21.13,-9.86 21.30,-10.02 24.01,-12.55 24.15,-12.67 32.16,-19.84 32.34,-20.00 35.03,-22.51 35.16,-22.62 43.19,-29.55 43.28,-29.62 46.13,-32.28 46.25,-32.39 48.82,-34.60"/>
        <lane id="20_4" index="4" disallow="bus rail_fast" speed="36.11" length="96.59" width="3.48" customShape="1" shape="-18.76,32.13 -16.69,30.07 -16.45,29.84 -8.96,22.85 -8.76,22.66 -6.11,20.01 -5.87,19.78 1.76,12.62 2.04,12.35 4.65,9.92 4.96,9.64 12.60,2.65 12.89,2.38 15.51,-0.06 15.81,-0.34 23.44,-7.34 23.73,-7.60 26.35,-10.05 26.67,-10.34 34.44,-17.28 34.74,-17.55 37.37,-20.00 37.71,-20.31 45.56,-27.17 45.85,-27.43 48.51,-29.90 48.87,-30.22 51.04,-32.05"/>
    </edge>

    <junction id="1" type="dead_end" x="-23.56" y="27.32" incLanes="" intLanes="" shape="-17.53,33.36 -29.60,21.27"/>
    <junction id="2" type="priority" x="47.75" y="-38.13" incLanes="17_0 20_0 20_1 20_2 20_3 20_4" intLanes=":2_0_0 :2_1_0 :2_1_1 :2_1_2 :2_1_3 :2_1_4" shape="54.47,-32.67 40.74,-48.48 18.01,-29.03 20.41,-26.29 41.02,-43.57 52.18,-30.73">
        <request index="0" response="000000" foes="000000" cont="0"/>
        <request index="1" response="000000" foes="000000" cont="0"/>
        <request index="2" response="000000" foes="000000" cont="0"/>
        <request index="3" response="000000" foes="000000" cont="0"/>
        <request index="4" response="000000" foes="000000" cont="0"/>
        <request index="5" response="000000" foes="000000" cont="0"/>
    </junction>
    <junction id="3" type="dead_end" x="97.20" y="-83.80" incLanes="16_0 16_1 16_2 16_3 16_4 16_5" intLanes="" shape="90.09,-91.74 104.07,-76.11"/>
    <junction id="4" type="dead_end" x="-35.00" y="15.06" incLanes="" intLanes="" shape="-34.00,16.59 -35.99,13.54"/>

    <connection from="17" to="16" fromLane="0" toLane="0" contPos="-4.00" via=":2_0_0" dir="s" state="M"/>
    <connection from="20" to="16" fromLane="0" toLane="1" contPos="-4.00" via=":2_1_0" dir="s" state="M"/>
    <connection from="20" to="16" fromLane="1" toLane="2" contPos="-4.00" via=":2_1_1" dir="s" state="M"/>
    <connection from="20" to="16" fromLane="2" toLane="3" contPos="-4.00" via=":2_1_2" dir="s" state="M"/>
    <connection from="20" to="16" fromLane="3" toLane="4" contPos="-4.00" via=":2_1_3" dir="s" state="M"/>
    <connection from="20" to="16" fromLane="4" toLane="5" contPos="-4.00" via=":2_1_4" dir="s" state="M"/>

    <connection from=":2_0" to="16" fromLane="0" toLane="0" dir="s" state="M"/>
    <connection from=":2_1" to="16" fromLane="0" toLane="1" dir="s" state="M"/>
    <connection from=":2_1" to="16" fromLane="1" toLane="2" dir="s" state="M"/>
    <connection from=":2_1" to="16" fromLane="2" toLane="3" dir="s" state="M"/>
    <connection from=":2_1" to="16" fromLane="3" toLane="4" dir="s" state="M"/>
    <connection from=":2_1" to="16" fromLane="4" toLane="5" dir="s" state="M"/>

</net>
