<routes>
	<vehicle depart="0.1" departLane="0" departPos="48.279002895489356" departSpeed="1.2119902" id="37" type="bicycle">
		<route edges="10717 10562"/>
	</vehicle>
	<vehicle depart="0.1" departLane="0" departPos="30.314775516512732" departSpeed="2.587227" id="31" type="passenger">
		<route edges=":37_4 10563 10566"/>
	</vehicle>
	<vehicle depart="0.1" departLane="0" departPos="20.32044455007116" departSpeed="8.8182728" id="319" type="passenger">
		<route edges=":39_2 10718"/>
	</vehicle>
	<vehicle depart="0.1" departLane="0" departPos="36.461275952437234" departSpeed="10.434606" id="322" type="passenger">
		<route edges=":39_3 10562 10559"/>
	</vehicle>
	<vehicle depart="0.1" departLane="0" departPos="37.826818669502" departSpeed="11.041852" id="323" type="passenger">
		<route edges=":38_3 10565 10562"/>
	</vehicle>
	<vehicle depart="0.1" departLane="0" departPos="64.29653544373278" departSpeed="7.715342" id="324" type="passenger">
		<route edges="10568 10565"/>
	</vehicle>
	<vehicle depart="0.1" departLane="0" departPos="9.263640424159416" departSpeed="1.4554414" id="327" type="passenger">
		<route edges=":39_5 10718"/>
	</vehicle>
	<vehicle depart="0.1" departLane="0" departPos="18.777100825044393" departSpeed="8.311489" id="334" type="passenger">
		<route edges=":38_3 10565 10562"/>
	</vehicle>
	<vehicle depart="0.1" departLane="0" departPos="18.14096296495907" departSpeed="0.34734552" id="33" type="motorcycle">
		<route edges="10563 10718"/>
	</vehicle>
	<vehicle depart="0.1" departLane="0" departPos="3.75" departSpeed="1.11575" id="329" type="truck">
		<route edges=":39_0 10562 10559"/>
	</vehicle>
</routes>
