<routes>
	<vehicle depart="0.1" departLane="0" departPos="5.761153233774958" departSpeed="0.98632927" id="330" type="bicycle">
		<route edges=":103_6 43350"/>
	</vehicle>
	<vehicle depart="0.1" departLane="0" departPos="11.79974446877753" departSpeed="0.0" id="317" type="passenger">
		<route edges=":104_10 43220"/>
	</vehicle>
	<vehicle depart="0.1" departLane="0" departPos="20.920064026025567" departSpeed="1.054215" id="325" type="passenger">
		<route edges=":103_11 43152"/>
	</vehicle>
	<vehicle depart="0.1" departLane="0" departPos="42.102977413547165" departSpeed="2.0610461" id="327" type="passenger">
		<route edges="43844 43152"/>
	</vehicle>
	<vehicle depart="0.1" departLane="0" departPos="57.73266838074303" departSpeed="1.4728643" id="331" type="passenger">
		<route edges="43844 43152"/>
	</vehicle>
	<vehicle depart="0.1" departLane="0" departPos="23.675590590460555" departSpeed="1.0537792" id="371" type="passenger">
		<route edges=":104_1 43151"/>
	</vehicle>
	<vehicle depart="0.1" departLane="0" departPos="8.117136961066176" departSpeed="0.043261297" id="322" type="motorcycle">
		<route edges=":103_7 43152"/>
	</vehicle>
	<vehicle depart="0.1" departLane="0" departPos="24.830489575759167" departSpeed="1.1144464" id="351" type="motorcycle">
		<route edges="43844 43152"/>
	</vehicle>
	<vehicle depart="0.1" departLane="0" departPos="30.0048670138535" departSpeed="1.6051893" id="365" type="truck">
		<route edges=":103_1 43845"/>
	</vehicle>
	<vehicle depart="0.1" departLane="0" departPos="3.75" departSpeed="0.00019856299" id="369" type="truck">
		<route edges=":104_10 43220"/>
	</vehicle>
</routes>
