<!-- generated on 2020-12-18 15:57:08.940876 by ipykernel_launcher.py v1_2_0+5214-53edc58fcd
-->
<connections>
	<connection contPos="-4.0" from="52746" fromLane="1" keepClear="true" to="52806" toLane="1"/>
	<connection contPos="-4.0" from="52746" fromLane="0" keepClear="true" to="52830" toLane="0"/>
	<connection contPos="-4.0" from="52746" fromLane="0" keepClear="true" to="52806" toLane="0"/>
	<connection contPos="-4.0" from="52756" fromLane="1" keepClear="true" to="52760" toLane="1"/>
	<connection contPos="-4.0" from="52756" fromLane="0" keepClear="true" to="52760" toLane="0"/>
	<connection contPos="-4.0" from="52760" fromLane="1" keepClear="true" to="52764" toLane="1"/>
	<connection contPos="-4.0" from="52760" fromLane="0" keepClear="true" to="52764" toLane="0"/>
	<connection contPos="-4.0" from="52770" fromLane="2" keepClear="true" to="52776" toLane="2"/>
	<connection contPos="-4.0" from="52770" fromLane="1" keepClear="true" to="52776" toLane="1"/>
	<connection contPos="-4.0" from="52770" fromLane="0" keepClear="true" to="52788" toLane="0"/>
	<connection contPos="-4.0" from="52770" fromLane="0" keepClear="true" to="52776" toLane="0"/>
	<connection contPos="-4.0" from="52776" fromLane="2" keepClear="true" to="52782" toLane="2"/>
	<connection contPos="-4.0" from="52776" fromLane="1" keepClear="true" to="52782" toLane="1"/>
	<connection contPos="-4.0" from="52776" fromLane="0" keepClear="true" to="52782" toLane="0"/>
	<connection contPos="-4.0" from="52782" fromLane="2" keepClear="true" to="52822" toLane="2"/>
	<connection contPos="-4.0" from="52782" fromLane="1" keepClear="true" to="52822" toLane="1"/>
	<connection contPos="-4.0" from="52782" fromLane="0" keepClear="true" to="52834" toLane="0"/>
	<connection contPos="-4.0" from="52782" fromLane="0" keepClear="true" to="52822" toLane="0"/>
	<connection contPos="-4.0" from="52786" fromLane="0" keepClear="true" to="52760" toLane="0"/>
	<connection contPos="-4.0" from="52788" fromLane="0" keepClear="true" to="52790" toLane="0"/>
	<connection contPos="-4.0" from="52792" fromLane="0" keepClear="true" to="52794" toLane="0"/>
	<connection contPos="-4.0" from="52794" fromLane="0" keepClear="true" to="52782" toLane="0"/>
	<connection contPos="-4.0" from="52796" fromLane="0" keepClear="true" to="52836" toLane="0"/>
	<connection contPos="-4.0" from="52796" fromLane="0" keepClear="true" to="52828" toLane="0"/>
	<connection contPos="-4.0" from="52802" fromLane="0" keepClear="true" to="52832" toLane="0"/>
	<connection contPos="-4.0" from="52802" fromLane="0" keepClear="true" to="52826" toLane="0"/>
	<connection contPos="-4.0" from="52806" fromLane="1" keepClear="true" to="52852" toLane="0"/>
	<connection contPos="-4.0" from="52806" fromLane="1" keepClear="true" to="52844" toLane="1"/>
	<connection contPos="-4.0" from="52806" fromLane="0" keepClear="true" to="52844" toLane="0"/>
	<connection contPos="-4.0" from="52812" fromLane="2" keepClear="true" to="52752" toLane="2"/>
	<connection contPos="-4.0" from="52812" fromLane="1" keepClear="true" to="52752" toLane="1"/>
	<connection contPos="-4.0" from="52812" fromLane="0" keepClear="true" to="52752" toLane="0"/>
	<connection contPos="-4.0" from="52816" fromLane="1" keepClear="true" to="52756" toLane="1"/>
	<connection contPos="-4.0" from="52816" fromLane="0" keepClear="true" to="52784" toLane="0"/>
	<connection contPos="-4.0" from="52816" fromLane="0" keepClear="true" to="52756" toLane="0"/>
	<connection contPos="-4.0" from="52822" fromLane="2" keepClear="true" to="52848" toLane="2"/>
	<connection contPos="-4.0" from="52822" fromLane="2" keepClear="true" to="52850" toLane="0"/>
	<connection contPos="-4.0" from="52822" fromLane="1" keepClear="true" to="52848" toLane="1"/>
	<connection contPos="-4.0" from="52822" fromLane="0" keepClear="true" to="52848" toLane="0"/>
	<connection contPos="-4.0" from="52824" fromLane="0" keepClear="true" to="52800" toLane="0"/>
	<connection contPos="-4.0" from="52826" fromLane="0" keepClear="true" to="52856" toLane="0"/>
	<connection contPos="-4.0" from="52826" fromLane="0" keepClear="true" to="52840" toLane="0"/>
	<connection contPos="-4.0" from="52828" fromLane="0" keepClear="true" to="52854" toLane="0"/>
	<connection contPos="-4.0" from="52828" fromLane="0" keepClear="true" to="52838" toLane="0"/>
	<connection contPos="-4.0" from="52830" fromLane="0" keepClear="true" to="52798" toLane="0"/>
	<connection contPos="-4.0" from="52832" fromLane="0" keepClear="true" to="52752" toLane="0"/>
	<connection contPos="-4.0" from="52834" fromLane="0" keepClear="true" to="52800" toLane="0"/>
	<connection contPos="-4.0" from="52836" fromLane="0" keepClear="true" to="52784" toLane="0"/>
	<connection contPos="-4.0" from="52836" fromLane="0" keepClear="true" to="52756" toLane="0"/>
	<connection contPos="-4.0" from="52838" fromLane="0" keepClear="true" to="52824" toLane="0"/>
	<connection contPos="-4.0" from="52840" fromLane="0" keepClear="true" to="52858" toLane="0"/>
	<connection contPos="-4.0" from="52844" fromLane="1" keepClear="true" to="52816" toLane="1"/>
	<connection contPos="-4.0" from="52844" fromLane="0" keepClear="true" to="52816" toLane="0"/>
	<connection contPos="-4.0" from="52848" fromLane="1" keepClear="true" to="52812" toLane="1"/>
	<connection contPos="-4.0" from="52848" fromLane="0" keepClear="true" to="52812" toLane="0"/>
	<connection contPos="-4.0" from="52850" fromLane="0" keepClear="true" to="52858" toLane="0"/>
	<connection contPos="-4.0" from="52852" fromLane="0" keepClear="true" to="52824" toLane="0"/>
	<connection contPos="-4.0" from="52854" fromLane="0" keepClear="true" to="52752" toLane="2"/>
	<connection contPos="-4.0" from="52856" fromLane="0" keepClear="true" to="52756" toLane="1"/>
	<connection contPos="-4.0" from="52858" fromLane="0" keepClear="true" to="52798" toLane="0"/>
	<connection contPos="-4.0" from="52848" fromLane="2" keepClear="true" to="52812" toLane="2"/>
</connections>
