<!-- generated on 2020-12-18 15:57:08.775093 by ipykernel_launcher.py v1_2_0+5214-53edc58fcd
-->
<edges>
	<edge from="1" function="normal" id="52746" length="11.724006456439069" numLanes="2" priority="1" speed="36.11111111111111" spreadType="center" to="2">
		<lane allow="moped bicycle pedestrian custom1 trailer evehicle rail_urban ship private truck vip custom2 authority delivery rail_electric taxi tram army hov coach motorcycle passenger bus rail emergency" index="0" length="11.724006456439069" shape="-0.6456250000000001,17.14915 0.07630000000000003,5.4386" speed="36.11111111111111" width="2.5782450232667955"/>
		<lane allow="moped bicycle pedestrian custom1 trailer evehicle rail_urban ship private truck vip custom2 authority delivery rail_electric taxi tram army hov coach motorcycle passenger bus rail emergency" index="1" length="11.724006456439069" shape="2.2639750000000003,17.2244 2.9486,5.5204" speed="36.11111111111111" width="3.0673321571848073"/>
	</edge>
	<edge from="3" function="normal" id="52752" length="11.752980921132304" numLanes="3" priority="1" speed="36.11111111111111" spreadType="center" to="4">
		<lane allow="moped bicycle pedestrian custom1 trailer evehicle rail_urban ship private truck vip custom2 authority delivery rail_electric taxi tram army hov coach motorcycle passenger bus rail emergency" index="0" length="11.752980921132304" shape="12.28665,5.78645 11.5241,17.55875" speed="36.11111111111111" width="2.531726861254981"/>
		<lane allow="moped bicycle pedestrian custom1 trailer evehicle rail_urban ship private truck vip custom2 authority delivery rail_electric taxi tram army hov coach motorcycle passenger bus rail emergency" index="1" length="11.752980921132304" shape="9.4224,5.70485 8.58745,17.4575" speed="36.11111111111111" width="3.116015444441827"/>
		<lane allow="moped bicycle pedestrian custom1 trailer evehicle rail_urban ship private truck vip custom2 authority delivery rail_electric taxi tram army hov coach motorcycle passenger bus rail emergency" index="2" length="11.752980921132304" shape="6.1779,5.6124 5.41355,17.3405" speed="36.11111111111111" width="3.236096081700912"/>
	</edge>
	<edge from="5" function="normal" id="52756" length="20.88644762064644" numLanes="2" priority="1" speed="36.11111111111111" spreadType="center" to="6">
		<lane allow="moped bicycle pedestrian custom1 trailer evehicle rail_urban ship private truck vip custom2 authority delivery rail_electric taxi tram army hov coach motorcycle passenger bus rail emergency" index="0" length="20.88644762064644" shape="1.331712,-14.4961 1.569345,-24.939 1.80698,-35.382000000000005" speed="36.11111111111111" width="2.763554701136925"/>
		<lane allow="moped bicycle pedestrian custom1 trailer evehicle rail_urban ship private truck vip custom2 authority delivery rail_electric taxi tram army hov coach motorcycle passenger bus rail emergency" index="1" length="20.88644762064644" shape="4.26445,-14.4265 4.5507,-24.86575 4.83695,-35.305099999999996" speed="36.11111111111111" width="3.103572820154217"/>
	</edge>
	<edge from="6" function="normal" id="52760" length="18.616247780937215" numLanes="2" priority="1" speed="36.11111111111111" spreadType="center" to="7">
		<lane allow="moped bicycle pedestrian custom1 trailer evehicle rail_urban ship private truck vip custom2 authority delivery rail_electric taxi tram army hov coach motorcycle passenger bus rail emergency" index="0" length="18.616247780937215" shape="1.80698,-35.382000000000005 2.01496,-44.687799999999996 2.222945,-53.9936" speed="36.11111111111111" width="2.948388982749732"/>
		<lane allow="moped bicycle pedestrian custom1 trailer evehicle rail_urban ship private truck vip custom2 authority delivery rail_electric taxi tram army hov coach motorcycle passenger bus rail emergency" index="1" length="18.616247780937215" shape="4.83695,-35.305099999999996 5.07605,-44.654250000000005 5.3152,-54.00335" speed="36.11111111111111" width="3.11350240886369"/>
	</edge>
	<edge from="7" function="normal" id="52764" length="5.294988680818876" numLanes="2" priority="1" speed="36.11111111111111" spreadType="center" to="8">
		<lane allow="moped bicycle pedestrian custom1 trailer evehicle rail_urban ship private truck vip custom2 authority delivery rail_electric taxi tram army hov coach motorcycle passenger bus rail emergency" index="0" length="5.294988680818876" shape="2.222945,-53.9936 2.3175749999999997,-59.2895" speed="36.11111111111111" width="3.0166634254586637"/>
		<lane allow="moped bicycle pedestrian custom1 trailer evehicle rail_urban ship private truck vip custom2 authority delivery rail_electric taxi tram army hov coach motorcycle passenger bus rail emergency" index="1" length="5.294988680818876" shape="5.3152,-54.00335 5.3599,-59.29815" speed="36.11111111111111" width="3.068011227163291"/>
	</edge>
	<edge from="9" function="normal" id="52770" length="5.293083045116515" numLanes="3" priority="1" speed="36.11111111111111" spreadType="center" to="10">
		<lane allow="moped bicycle pedestrian custom1 trailer evehicle rail_urban ship private truck vip custom2 authority delivery rail_electric taxi tram army hov coach motorcycle passenger bus rail emergency" index="0" length="5.293083045116515" shape="14.5305,-59.325649999999996 14.56015,-54.032650000000004" speed="36.11111111111111" width="2.822914029863468"/>
		<lane allow="moped bicycle pedestrian custom1 trailer evehicle rail_urban ship private truck vip custom2 authority delivery rail_electric taxi tram army hov coach motorcycle passenger bus rail emergency" index="1" length="5.293083045116515" shape="11.62725,-59.31685 11.63805,-54.023399999999995" speed="36.11111111111111" width="2.9791121261208002"/>
		<lane allow="moped bicycle pedestrian custom1 trailer evehicle rail_urban ship private truck vip custom2 authority delivery rail_electric taxi tram army hov coach motorcycle passenger bus rail emergency" index="2" length="5.293083045116515" shape="8.5158,-59.30745 8.505849999999999,-54.01345" speed="36.11111111111111" width="3.243116356222823"/>
	</edge>
	<edge from="10" function="normal" id="52776" length="18.79542459177229" numLanes="3" priority="1" speed="36.11111111111111" spreadType="center" to="11">
		<lane allow="moped bicycle pedestrian custom1 trailer evehicle rail_urban ship private truck vip custom2 authority delivery rail_electric taxi tram army hov coach motorcycle passenger bus rail emergency" index="0" length="18.79542459177229" shape="14.56015,-54.032650000000004 14.32095,-44.551550000000006 14.08175,-35.0704" speed="36.11111111111111" width="2.822914029863468"/>
		<lane allow="moped bicycle pedestrian custom1 trailer evehicle rail_urban ship private truck vip custom2 authority delivery rail_electric taxi tram army hov coach motorcycle passenger bus rail emergency" index="1" length="18.79542459177229" shape="11.63805,-54.023399999999995 11.40185,-44.5839 11.16565,-35.14445" speed="36.11111111111111" width="2.9986657866457875"/>
		<lane allow="moped bicycle pedestrian custom1 trailer evehicle rail_urban ship private truck vip custom2 authority delivery rail_electric taxi tram army hov coach motorcycle passenger bus rail emergency" index="2" length="18.79542459177229" shape="8.505849999999999,-54.01345 8.267900000000001,-44.61875 8.030000000000001,-35.22405" speed="36.11111111111111" width="3.243116356222823"/>
	</edge>
	<edge from="11" function="normal" id="52782" length="20.871192544869068" numLanes="3" priority="1" speed="36.11111111111111" spreadType="center" to="12">
		<lane allow="moped bicycle pedestrian custom1 trailer evehicle rail_urban ship private truck vip custom2 authority delivery rail_electric taxi tram army hov coach motorcycle passenger bus rail emergency" index="0" length="20.871192544869068" shape="14.08175,-35.0704 13.793,-24.6388 13.5042,-14.2072" speed="36.11111111111111" width="2.8291981903005667"/>
		<lane allow="moped bicycle pedestrian custom1 trailer evehicle rail_urban ship private truck vip custom2 authority delivery rail_electric taxi tram army hov coach motorcycle passenger bus rail emergency" index="1" length="20.871192544869068" shape="11.16565,-35.14445 10.888200000000001,-24.71015 10.61075,-14.2759" speed="36.11111111111111" width="2.9593327440489"/>
		<lane allow="moped bicycle pedestrian custom1 trailer evehicle rail_urban ship private truck vip custom2 authority delivery rail_electric taxi tram army hov coach motorcycle passenger bus rail emergency" index="2" length="20.871192544869068" shape="8.030000000000001,-35.22405 7.7518,-24.78715 7.473650000000001,-14.350349999999999" speed="36.11111111111111" width="3.27465457262289"/>
	</edge>
	<edge from="5" function="normal" id="52784" length="15.38697112663155" numLanes="1" priority="1" speed="36.11111111111111" spreadType="center" to="13">
		<lane allow="moped bicycle pedestrian custom1 trailer evehicle rail_urban ship private vip custom2 authority delivery rail_electric taxi tram army hov coach motorcycle passenger rail emergency" index="0" length="15.38697112663155" shape="1.331712,-14.4961 1.286673,-18.40585 0.9263199999999999,-19.721899999999998 0.25864,-20.690350000000002 -0.797245,-21.48075 -2.0916,-21.77735 -8.379249999999999,-21.921950000000002" speed="36.11111111111111" width="2.4012292719355233"/>
	</edge>
	<edge from="14" function="normal" id="52786" length="17.763375132250445" numLanes="1" priority="1" speed="36.11111111111111" spreadType="center" to="6">
		<lane allow="moped bicycle pedestrian custom1 trailer evehicle rail_urban ship private vip custom2 authority delivery rail_electric taxi tram army hov coach motorcycle passenger rail emergency" index="0" length="17.763375132250445" shape="-8.28105,-25.7855 -2.05335,-25.8306 -0.642715,-26.07425 0.27365000000000006,-26.65195 0.8131,-27.3499 1.2023415,-28.4307 1.64932,-31.22205 1.80698,-35.382000000000005" speed="36.11111111111111" width="2.708120058269203"/>
	</edge>
	<edge from="10" function="normal" id="52788" length="11.718167783326486" numLanes="1" priority="1" speed="36.11111111111111" spreadType="center" to="15">
		<lane allow="moped bicycle pedestrian custom1 trailer evehicle rail_urban ship private vip custom2 authority delivery rail_electric taxi tram army hov coach motorcycle passenger rail emergency" index="0" length="11.718167783326486" shape="14.56015,-54.032650000000004 14.584349999999999,-51.248400000000004 14.83975,-49.250299999999996 15.316199999999998,-47.372299999999996 16.04435,-46.1153 17.047150000000002,-45.132 19.01975,-44.3422" speed="36.11111111111111" width="2.822914029863468"/>
	</edge>
	<edge from="15" function="normal" id="52790" length="12.65095605290847" numLanes="1" priority="1" speed="36.11111111111111" spreadType="center" to="16">
		<lane allow="moped bicycle pedestrian custom1 trailer evehicle rail_urban ship private truck vip custom2 authority delivery rail_electric taxi tram army hov coach motorcycle passenger bus rail emergency" index="0" length="12.65095605290847" shape="19.01975,-44.3422 25.34515,-44.36825 31.6706,-44.394" speed="36.11111111111111" width="4.179433364703882"/>
	</edge>
	<edge from="17" function="normal" id="52792" length="12.463001108280462" numLanes="1" priority="1" speed="36.11111111111111" spreadType="center" to="18">
		<lane allow="moped bicycle pedestrian custom1 trailer evehicle rail_urban ship private truck vip custom2 authority delivery rail_electric taxi tram army hov coach motorcycle passenger bus rail emergency" index="0" length="12.463001108280462" shape="31.4651,-39.9765 25.233600000000003,-39.97925 19.0021,-39.98175" speed="36.11111111111111" width="4.5415380885774805"/>
	</edge>
	<edge from="18" function="normal" id="52794" length="7.9636770410467514" numLanes="1" priority="1" speed="36.11111111111111" spreadType="center" to="11">
		<lane allow="moped bicycle pedestrian custom1 trailer evehicle rail_urban ship private vip custom2 authority delivery rail_electric taxi tram army hov coach motorcycle passenger rail emergency" index="0" length="7.9636770410467514" shape="19.0021,-39.98175 17.180950000000003,-39.7078 16.26875,-39.42695 15.36685,-38.893150000000006 14.80875,-38.083749999999995 14.268699999999999,-36.852900000000005 14.08175,-35.0704" speed="36.11111111111111" width="2.835414299533668"/>
	</edge>
	<edge from="19" function="normal" id="52796" length="8.41416134795524" numLanes="1" priority="1" speed="36.11111111111111" spreadType="center" to="20">
		<lane allow="moped bicycle pedestrian custom1 trailer evehicle rail_urban ship private vip custom2 authority delivery rail_electric taxi tram army hov coach motorcycle passenger rail emergency" index="0" length="8.41416134795524" shape="-13.473099999999999,-5.258 -8.76985,-5.21865 -5.0592500000000005,-5.25165" speed="36.11111111111111" width="2.702357433797387"/>
	</edge>
	<edge from="21" function="normal" id="52798" length="8.414160929907874" numLanes="1" priority="1" speed="36.11111111111111" spreadType="center" to="22">
		<lane allow="moped bicycle pedestrian custom1 trailer evehicle rail_urban ship private vip custom2 authority delivery rail_electric taxi tram army hov coach motorcycle passenger rail emergency" index="0" length="8.414160929907874" shape="-5.09565,-2.6465 -8.806249999999999,-2.6135 -13.5095,-2.6528" speed="36.11111111111111" width="2.4696340538630417"/>
	</edge>
	<edge from="23" function="normal" id="52800" length="32.7140051746039" numLanes="1" priority="1" speed="36.11111111111111" spreadType="center" to="24">
		<lane allow="moped bicycle pedestrian custom1 trailer evehicle rail_urban ship private truck vip custom2 authority delivery rail_electric taxi tram army hov coach motorcycle passenger bus rail emergency" index="0" length="32.7140051746039" shape="21.667299999999997,-5.48315 29.846049999999998,-5.48695 38.025999999999996,-5.4924 46.203649999999996,-5.4879 54.381299999999996,-5.4834" speed="36.11111111111111" width="2.9638421145533376"/>
	</edge>
	<edge from="25" function="normal" id="52802" length="32.71460520217536" numLanes="1" priority="1" speed="36.11111111111111" spreadType="center" to="26">
		<lane allow="moped bicycle pedestrian custom1 trailer evehicle rail_urban ship private truck vip custom2 authority delivery rail_electric taxi tram army hov coach motorcycle passenger bus rail emergency" index="0" length="32.71460520217536" shape="54.36565,-2.6169000000000002 46.18785,-2.6214500000000003 38.01005,-2.6259500000000005 29.82995,-2.6205 21.651049999999998,-2.6167" speed="36.11111111111111" width="2.7326158255415267"/>
	</edge>
	<edge from="2" function="normal" id="52806" length="6.771698030297384" numLanes="2" priority="1" speed="36.11111111111111" spreadType="center" to="27">
		<lane allow="moped bicycle pedestrian custom1 trailer evehicle rail_urban ship private truck vip custom2 authority delivery rail_electric taxi tram army hov coach motorcycle passenger bus rail emergency" index="0" length="6.771698030297384" shape="0.07630000000000003,5.4386 0.28745,1.9875500000000001 0.483345,-1.32085" speed="36.11111111111111" width="2.5782450232667955"/>
		<lane allow="moped bicycle pedestrian custom1 trailer evehicle rail_urban ship private truck vip custom2 authority delivery rail_electric taxi tram army hov coach motorcycle passenger bus rail emergency" index="1" length="6.771698030297384" shape="2.9486,5.5204 3.1566,2.03325 3.34855,-1.2804" speed="36.11111111111111" width="3.1261338630967166"/>
	</edge>
	<edge from="28" function="normal" id="52812" length="6.869833247593299" numLanes="3" priority="1" speed="36.11111111111111" spreadType="center" to="3">
		<lane allow="moped bicycle pedestrian custom1 trailer evehicle rail_urban ship private truck vip custom2 authority delivery rail_electric taxi tram army hov coach motorcycle passenger bus rail emergency" index="0" length="6.869833247593299" shape="12.682549999999999,-1.28025 12.49225,2.18175 12.28665,5.78645" speed="36.11111111111111" width="2.531726861254981"/>
		<lane allow="moped bicycle pedestrian custom1 trailer evehicle rail_urban ship private truck vip custom2 authority delivery rail_electric taxi tram army hov coach motorcycle passenger bus rail emergency" index="1" length="6.869833247593299" shape="9.7876,-1.26675 9.612950000000001,2.1361499999999998 9.4224,5.70485" speed="36.11111111111111" width="3.1402052178161868"/>
		<lane allow="moped bicycle pedestrian custom1 trailer evehicle rail_urban ship private truck vip custom2 authority delivery rail_electric taxi tram army hov coach motorcycle passenger bus rail emergency" index="2" length="6.869833247593299" shape="6.564399999999999,-1.24655 6.3795,2.0846 6.1779,5.6124" speed="36.11111111111111" width="3.292536390079842"/>
	</edge>
	<edge from="29" function="normal" id="52816" length="7.824770336690182" numLanes="2" priority="1" speed="36.11111111111111" spreadType="center" to="5">
		<lane allow="moped bicycle pedestrian custom1 trailer evehicle rail_urban ship private truck vip custom2 authority delivery rail_electric taxi tram army hov coach motorcycle passenger bus rail emergency" index="0" length="7.824770336690182" shape="0.8128850000000001,-6.55935 1.06858,-10.487449999999999 1.331712,-14.4961" speed="36.11111111111111" width="2.6452769395471623"/>
		<lane allow="moped bicycle pedestrian custom1 trailer evehicle rail_urban ship private truck vip custom2 authority delivery rail_electric taxi tram army hov coach motorcycle passenger bus rail emergency" index="1" length="7.824770336690182" shape="3.68875,-6.6229499999999994 3.96585,-10.47695 4.26445,-14.4265" speed="36.11111111111111" width="3.100317780486381"/>
	</edge>
	<edge from="12" function="normal" id="52822" length="7.394295711693329" numLanes="3" priority="1" speed="36.11111111111111" spreadType="center" to="30">
		<lane allow="moped bicycle pedestrian custom1 trailer evehicle rail_urban ship private truck vip custom2 authority delivery rail_electric taxi tram army hov coach motorcycle passenger bus rail emergency" index="0" length="7.394295711693329" shape="13.5042,-14.2072 13.251100000000001,-10.44655 13.0136,-6.8292" speed="36.11111111111111" width="2.7378707420183295"/>
		<lane allow="moped bicycle pedestrian custom1 trailer evehicle rail_urban ship private truck vip custom2 authority delivery rail_electric taxi tram army hov coach motorcycle passenger bus rail emergency" index="1" length="7.394295711693329" shape="10.61075,-14.2759 10.34595,-10.4561 10.09455,-6.7646" speed="36.11111111111111" width="2.9593327440489"/>
		<lane allow="moped bicycle pedestrian custom1 trailer evehicle rail_urban ship private truck vip custom2 authority delivery rail_electric taxi tram army hov coach motorcycle passenger bus rail emergency" index="2" length="7.394295711693329" shape="7.473650000000001,-14.350349999999999 7.17415,-10.4661 6.8932,-6.6937999999999995" speed="36.11111111111111" width="3.3026068854769863"/>
	</edge>
	<edge from="31" function="normal" id="52824" length="7.38241595414426" numLanes="1" priority="1" speed="36.11111111111111" spreadType="center" to="23">
		<lane allow="moped bicycle pedestrian custom1 trailer evehicle rail_urban ship private truck vip custom2 authority delivery rail_electric taxi tram army hov coach motorcycle passenger bus rail emergency" index="0" length="7.38241595414426" shape="14.28525,-5.41195 17.97795,-5.4567 21.667299999999997,-5.48315" speed="36.11111111111111" width="2.9015859835614037"/>
	</edge>
	<edge from="26" function="normal" id="52826" length="7.5531729377588075" numLanes="1" priority="1" speed="36.11111111111111" spreadType="center" to="32">
		<lane allow="moped bicycle pedestrian custom1 trailer evehicle rail_urban ship private truck vip custom2 authority delivery rail_electric taxi tram army hov coach motorcycle passenger bus rail emergency" index="0" length="7.5531729377588075" shape="21.651049999999998,-2.6167 17.87615,-2.62755 14.0979,-2.6201" speed="36.11111111111111" width="2.6946722620756685"/>
	</edge>
	<edge from="20" function="normal" id="52828" length="4.473926484621341" numLanes="1" priority="1" speed="36.11111111111111" spreadType="center" to="33">
		<lane allow="moped bicycle pedestrian custom1 trailer evehicle rail_urban ship private truck vip custom2 authority delivery rail_electric taxi tram army hov coach motorcycle passenger bus rail emergency" index="0" length="4.473926484621341" shape="-5.0592500000000005,-5.25165 -2.8225,-5.2183 -0.58582,-5.1850000000000005" speed="36.11111111111111" width="2.6945347962867356"/>
	</edge>
	<edge from="2" function="normal" id="52830" length="12.118108749525263" numLanes="1" priority="1" speed="36.11111111111111" spreadType="center" to="21">
		<lane allow="moped bicycle pedestrian custom1 trailer evehicle rail_urban ship private vip custom2 authority delivery rail_electric taxi tram army hov coach motorcycle passenger rail emergency" index="0" length="12.118108749525263" shape="0.07630000000000003,5.4386 0.2801,2.03275 0.11445000000000005,0.016965000000000008 -0.21111499999999994,-1.206475 -0.91503,-2.0606 -2.06435,-2.6226 -5.09565,-2.6465" speed="36.11111111111111" width="2.5084512133984185"/>
	</edge>
	<edge from="26" function="normal" id="52832" length="15.09618063579868" numLanes="1" priority="1" speed="36.11111111111111" spreadType="center" to="3">
		<lane allow="moped bicycle pedestrian custom1 trailer evehicle rail_urban ship private vip custom2 authority delivery rail_electric taxi tram army hov coach motorcycle passenger rail emergency" index="0" length="15.09618063579868" shape="21.651049999999998,-2.6167 17.9268,-2.60635 15.91235,-2.052925 14.2274,-1.019485 13.053,0.4058575 12.51675,2.39635 12.28665,5.78645" speed="36.11111111111111" width="2.5021694731772266"/>
	</edge>
	<edge from="12" function="normal" id="52834" length="14.788043522256062" numLanes="1" priority="1" speed="36.11111111111111" spreadType="center" to="23">
		<lane allow="moped bicycle pedestrian custom1 trailer evehicle rail_urban ship private vip custom2 authority delivery rail_electric taxi tram army hov coach motorcycle passenger rail emergency" index="0" length="14.788043522256062" shape="13.5042,-14.2072 13.34805,-10.455549999999999 13.77325,-8.4265 14.85785,-6.976050000000001 16.53585,-5.95125 18.50805,-5.49885 21.667299999999997,-5.48315" speed="36.11111111111111" width="2.8291981903005667"/>
	</edge>
	<edge from="20" function="normal" id="52836" length="13.499032803559576" numLanes="1" priority="1" speed="36.11111111111111" spreadType="center" to="5">
		<lane allow="moped bicycle pedestrian custom1 trailer evehicle rail_urban ship private vip custom2 authority delivery rail_electric taxi tram army hov coach motorcycle passenger rail emergency" index="0" length="13.499032803559576" shape="-5.0592500000000005,-5.25165 -2.1088,-5.2631 -0.7635649999999999,-5.8099 -0.03178000000000003,-6.8043499999999995 0.52647,-8.3058 1.05931,-10.64295 1.331712,-14.4961" speed="36.11111111111111" width="2.666112524707088"/>
	</edge>
	<edge from="33" function="normal" id="52838" length="14.872810586570653" numLanes="1" priority="1" speed="36.11111111111111" spreadType="center" to="31">
		<lane allow="moped bicycle pedestrian custom1 trailer evehicle rail_urban ship private truck vip custom2 authority delivery rail_electric taxi tram army hov coach motorcycle passenger bus rail emergency" index="0" length="14.872810586570653" shape="-0.58582,-5.1850000000000005 2.0441000000000003,-5.23135 5.15425,-5.277200000000001 8.4609,-5.3259 11.57055,-5.3717 14.28525,-5.41195" speed="36.11111111111111" width="2.6945347962867356"/>
	</edge>
	<edge from="32" function="normal" id="52840" length="14.83891393538547" numLanes="1" priority="1" speed="36.11111111111111" spreadType="center" to="34">
		<lane allow="moped bicycle pedestrian custom1 trailer evehicle rail_urban ship private vip custom2 authority delivery rail_electric taxi tram army hov coach motorcycle passenger rail emergency" index="0" length="14.83891393538547" shape="14.0979,-2.6201 11.42685,-2.6146000000000003 8.29765,-2.58515 4.9887,-2.5707 1.86945,-2.5953 -0.74071,-2.58255" speed="36.11111111111111" width="2.5195962156663123"/>
	</edge>
	<edge from="27" function="normal" id="52844" length="5.24885739373844" numLanes="2" priority="1" speed="36.11111111111111" spreadType="center" to="29">
		<lane allow="moped bicycle pedestrian custom1 trailer evehicle rail_urban ship private truck vip custom2 authority delivery rail_electric taxi tram army hov coach motorcycle passenger bus rail emergency" index="0" length="5.24885739373844" shape="0.483345,-1.32085 0.645395,-3.857 0.8128850000000001,-6.55935" speed="36.11111111111111" width="2.6051245271771557"/>
		<lane allow="moped bicycle pedestrian custom1 trailer evehicle rail_urban ship private truck vip custom2 authority delivery rail_electric taxi tram army hov coach motorcycle passenger bus rail emergency" index="1" length="5.24885739373844" shape="3.34855,-1.2804 3.5096000000000003,-3.8856 3.68875,-6.6229499999999994" speed="36.11111111111111" width="3.1078594080170356"/>
	</edge>
	<edge from="30" function="normal" id="52848" length="5.457167966309326" numLanes="3" priority="1" speed="36.11111111111111" spreadType="center" to="28">
		<lane allow="moped bicycle pedestrian custom1 trailer evehicle rail_urban ship private truck vip custom2 authority delivery rail_electric taxi tram army hov coach motorcycle passenger bus rail emergency" index="0" length="5.457167966309326" shape="13.0136,-6.8292 12.8422,-3.95445 12.682549999999999,-1.28025" speed="36.11111111111111" width="2.6499149458048654"/>
		<lane allow="moped bicycle pedestrian custom1 trailer evehicle rail_urban ship private truck vip custom2 authority delivery rail_electric taxi tram army hov coach motorcycle passenger bus rail emergency" index="1" length="5.457167966309326" shape="10.09455,-6.7646 9.936900000000001,-3.933 9.7876,-1.26675" speed="36.11111111111111" width="3.1016587126890665"/>
		<lane allow="moped bicycle pedestrian custom1 trailer evehicle rail_urban ship private truck vip custom2 authority delivery rail_electric taxi tram army hov coach motorcycle passenger bus rail emergency" index="2" length="5.457167966309326" shape="6.8932,-6.6937999999999995 6.7219500000000005,-3.9093 6.564399999999999,-1.24655" speed="36.11111111111111" width="3.3026068854769863"/>
	</edge>
	<edge from="30" function="normal" id="52850" length="10.07495021746246" numLanes="1" priority="1" speed="36.11111111111111" spreadType="center" to="34">
		<lane allow="moped bicycle pedestrian custom1 trailer evehicle rail_urban ship private vip custom2 authority delivery rail_electric taxi tram army hov coach motorcycle passenger rail emergency" index="0" length="10.07495021746246" shape="6.8932,-6.6937999999999995 6.54455,-4.8386 6.0969999999999995,-3.96755 5.53245,-3.37385 4.4413,-2.90505 3.0168999999999997,-2.6787 -0.74071,-2.58255" speed="36.11111111111111" width="2.4042669152987157"/>
	</edge>
	<edge from="27" function="normal" id="52852" length="13.459248468147333" numLanes="1" priority="1" speed="36.11111111111111" spreadType="center" to="31">
		<lane allow="moped bicycle pedestrian custom1 trailer evehicle rail_urban ship private vip custom2 authority delivery rail_electric taxi tram army hov coach motorcycle passenger rail emergency" index="0" length="13.459248468147333" shape="3.34855,-1.2804 3.70055,-3.66205 4.103,-4.2059999999999995 4.6649,-4.6067 5.41755,-4.8711 6.41545,-5.00555 14.28525,-5.41195" speed="36.11111111111111" width="2.81965232785888"/>
	</edge>
	<edge from="33" function="normal" id="52854" length="14.53001751613142" numLanes="1" priority="1" speed="36.11111111111111" spreadType="center" to="3">
		<lane allow="moped bicycle pedestrian custom1 trailer evehicle rail_urban ship private vip custom2 authority delivery rail_electric taxi tram army hov coach motorcycle passenger rail emergency" index="0" length="14.53001751613142" shape="-0.58582,-5.1850000000000005 1.474055,-4.71745 3.1231,-3.8954 4.4055,-2.8621999999999996 5.10825,-1.9443000000000001 5.8736999999999995,-0.131759 6.37445,2.1168 6.1779,5.6124" speed="36.11111111111111" width="2.4632779867485515"/>
	</edge>
	<edge from="32" function="normal" id="52856" length="18.625974067822398" numLanes="1" priority="1" speed="36.11111111111111" spreadType="center" to="5">
		<lane allow="moped bicycle pedestrian custom1 trailer evehicle rail_urban ship private vip custom2 authority delivery rail_electric taxi tram army hov coach motorcycle passenger rail emergency" index="0" length="18.625974067822398" shape="14.0979,-2.6201 10.5846,-2.87615 8.83825,-3.2967500000000003 6.9954,-4.15515 5.60125,-5.24965 4.8323,-6.490600000000001 4.22545,-8.6089 4.0075,-10.559650000000001 4.26445,-14.4265" speed="36.11111111111111" width="2.6946722620756685"/>
	</edge>
	<edge from="34" function="normal" id="52858" length="4.355409511000332" numLanes="1" priority="1" speed="36.11111111111111" spreadType="center" to="21">
		<lane allow="moped bicycle pedestrian custom1 trailer evehicle rail_urban ship private truck vip custom2 authority delivery rail_electric taxi tram army hov coach motorcycle passenger bus rail emergency" index="0" length="4.355409511000332" shape="-0.74071,-2.58255 -2.91815,-2.6145 -5.09565,-2.6465" speed="36.11111111111111" width="2.5084512133984185"/>
	</edge>
</edges>
