<!-- generated on 2020-12-18 15:57:08.864303 by ipykernel_launcher.py v1_2_0+5214-53edc58fcd
-->
<nodes>
	<node id="1" type="from" x="0.8091750000000001" y="17.186774999999997"/>
	<node id="2" type="to" x="1.5124499999999999" y="5.4795"/>
	<node id="3" type="from" x="9.29565" y="5.701233333333334"/>
	<node id="4" type="to" x="8.508366666666667" y="17.45225"/>
	<node id="5" type="from" x="2.798081" y="-14.461300000000001"/>
	<node id="6" type="to" x="3.321965" y="-35.34355"/>
	<node id="7" type="to" x="3.7690725" y="-53.998475"/>
	<node id="8" type="to" x="3.8387374999999997" y="-59.293825"/>
	<node id="9" type="from" x="11.55785" y="-59.31665"/>
	<node id="10" type="to" x="11.568016666666665" y="-54.02316666666667"/>
	<node id="11" type="to" x="11.092466666666667" y="-35.1463"/>
	<node id="12" type="to" x="10.529533333333333" y="-14.277816666666666"/>
	<node id="13" type="to" x="-8.379249999999999" y="-21.921950000000002"/>
	<node id="14" type="from" x="-8.28105" y="-25.7855"/>
	<node id="15" type="to" x="19.01975" y="-44.3422"/>
	<node id="16" type="to" x="31.6706" y="-44.394"/>
	<node id="17" type="from" x="31.4651" y="-39.9765"/>
	<node id="18" type="to" x="19.0021" y="-39.98175"/>
	<node id="19" type="from" x="-13.473099999999999" y="-5.258"/>
	<node id="20" type="to" x="-5.0592500000000005" y="-5.25165"/>
	<node id="21" type="from" x="-5.09565" y="-2.6465"/>
	<node id="22" type="to" x="-13.5095" y="-2.6528"/>
	<node id="23" type="from" x="21.667299999999997" y="-5.48315"/>
	<node id="24" type="to" x="54.381299999999996" y="-5.4834"/>
	<node id="25" type="from" x="54.36565" y="-2.6169000000000002"/>
	<node id="26" type="to" x="21.651049999999998" y="-2.6167"/>
	<node id="27" type="to" x="1.9159475" y="-1.3006250000000001"/>
	<node id="28" type="from" x="9.678183333333331" y="-1.2645166666666667"/>
	<node id="29" type="from" x="2.2508175" y="-6.59115"/>
	<node id="30" type="to" x="10.00045" y="-6.762533333333333"/>
	<node id="31" type="from" x="14.28525" y="-5.41195"/>
	<node id="32" type="to" x="14.0979" y="-2.6201"/>
	<node id="33" type="to" x="-0.58582" y="-5.1850000000000005"/>
	<node id="34" type="to" x="-0.74071" y="-2.58255"/>
</nodes>
