<routes>
	<vehicle depart="0.1" departLane="2" departPos="0" departSpeed="1.0302" id="982" type="passenger">
		<route edges="52782 52822 52848 52812 52752"/>
	</vehicle>
	<vehicle depart="0.1" departLane="1" departPos="0" departSpeed="13.0881" id="999" type="passenger">
		<route edges="52816 52856 52756 52756 52760 52764"/>
	</vehicle>
	<vehicle depart="0.1" departLane="1" departPos="3.7756043829952004" departSpeed="3.7368" id="1026" type="passenger">
		<route edges="52822 52848 52812 52752"/>
	</vehicle>
</routes>
