<?xml version="1.0" encoding="UTF-8"?>

<!-- generated on Fri Dec 18 15:57:09 2020 by Eclipse SUMO netconvert Version 1.8.0
<configuration xmlns:xsi="http://www.w3.org/2001/XMLSchema-instance" xsi:noNamespaceSchemaLocation="http://sumo.dlr.de/xsd/netconvertConfiguration.xsd">

    <input>
        <node-files value="./converted_scenarios/NGSIM/Peachtree/USA_Peach-1_1_I-1-1/nodes.net.xml"/>
        <edge-files value="./converted_scenarios/NGSIM/Peachtree/USA_Peach-1_1_I-1-1/edges.net.xml"/>
        <connection-files value="./converted_scenarios/NGSIM/Peachtree/USA_Peach-1_1_I-1-1/_connections.net.xml"/>
        <tllogic-files value="./converted_scenarios/NGSIM/Peachtree/USA_Peach-1_1_I-1-1/_tll.net.xml"/>
    </input>

    <output>
        <output-file value="./converted_scenarios/NGSIM/Peachtree/USA_Peach-1_1_I-1-1/USA_Peach-1_1_I-1-1.net.xml"/>
    </output>

    <processing>
        <plain.extend-edge-shape value="true"/>
        <geometry.remove.keep-edges.explicit value="true"/>
        <geometry.avoid-overlap value="true"/>
        <offset.disable-normalization value="true"/>
    </processing>

    <junctions>
        <no-turnarounds value="true"/>
        <junctions.internal-link-detail value="20"/>
    </junctions>

    <report>
        <aggregate-warnings value="5"/>
    </report>

    <random_number>
        <seed value="1234"/>
    </random_number>

</configuration>
-->

<net version="1.6" junctionCornerDetail="5" junctionLinkDetail="20" limitTurnSpeed="5.50" xmlns:xsi="http://www.w3.org/2001/XMLSchema-instance" xsi:noNamespaceSchemaLocation="http://sumo.dlr.de/xsd/net_file.xsd">

    <location netOffset="0.00,0.00" convBoundary="-13.51,-59.32,54.38,17.45" origBoundary="-13.51,-59.33,54.38,17.56" projParameter="!"/>

    <edge id=":10_0" function="internal">
        <lane id=":10_0_0" index="0" disallow="bus truck rail_fast" speed="13.60" length="10.07" width="2.82" shape="14.55,-55.56 14.56,-54.82 14.58,-54.15 14.61,-53.55 14.65,-53.00 14.71,-52.49 14.78,-52.03 14.87,-51.60 14.98,-51.20 15.11,-50.82 15.26,-50.44 15.43,-50.07 15.63,-49.69 15.85,-49.30 16.10,-48.89 16.37,-48.45 16.68,-47.98 17.01,-47.47 17.38,-46.91 17.79,-46.29"/>
    </edge>
    <edge id=":10_1" function="internal">
        <lane id=":10_1_0" index="0" disallow="rail_fast" speed="36.11" length="11.43" width="2.82" shape="14.55,-55.56 14.28,-42.96"/>
        <lane id=":10_1_1" index="1" disallow="rail_fast" speed="36.11" length="11.43" width="3.00" shape="11.63,-55.55 11.40,-44.68"/>
        <lane id=":10_1_2" index="2" disallow="rail_fast" speed="36.11" length="11.43" width="3.24" shape="8.51,-55.54 8.27,-44.72"/>
    </edge>
    <edge id=":11_0" function="internal">
        <lane id=":11_0_0" index="0" disallow="bus truck rail_fast" speed="7.08" length="9.50" width="2.83" shape="18.84,-39.96 18.36,-39.87 17.91,-39.75 17.49,-39.59 17.08,-39.41 16.71,-39.19 16.35,-38.94 16.03,-38.66 15.72,-38.35 15.44,-38.00 15.19,-37.63 14.96,-37.22 14.76,-36.78 14.58,-36.31 14.42,-35.80 14.29,-35.27 14.19,-34.70 14.11,-34.10 14.05,-33.47 14.02,-32.80"/>
    </edge>
    <edge id=":11_1" function="internal">
        <lane id=":11_1_0" index="0" disallow="rail_fast" speed="36.11" length="11.14" width="2.83" shape="14.28,-42.85 14.02,-32.80"/>
        <lane id=":11_1_1" index="1" disallow="rail_fast" speed="36.11" length="11.14" width="2.96" shape="11.40,-44.58 11.11,-32.88"/>
        <lane id=":11_1_2" index="2" disallow="rail_fast" speed="36.11" length="11.14" width="3.27" shape="8.27,-44.62 7.97,-32.96"/>
    </edge>
    <edge id=":12_0" function="internal">
        <lane id=":12_0_0" index="0" disallow="bus truck rail_fast" speed="7.48" length="10.51" width="2.83" shape="13.57,-16.53 13.54,-15.52 13.53,-14.56 13.53,-13.66 13.53,-12.81 13.55,-12.01 13.57,-11.26 13.61,-10.57 13.66,-9.93 13.71,-9.34 13.78,-8.80 13.85,-8.32 13.94,-7.89 14.03,-7.51 14.14,-7.19 14.25,-6.91 14.38,-6.69 14.51,-6.53 14.65,-6.41 14.81,-6.35"/>
    </edge>
    <edge id=":12_1" function="internal">
        <lane id=":12_1_0" index="0" disallow="rail_fast" speed="36.11" length="11.04" width="2.74" shape="13.57,-16.53 12.93,-5.51"/>
        <lane id=":12_1_1" index="1" disallow="rail_fast" speed="36.11" length="11.04" width="2.96" shape="10.67,-16.60 10.01,-5.58"/>
        <lane id=":12_1_2" index="2" disallow="rail_fast" speed="36.11" length="11.04" width="3.30" shape="7.54,-16.68 6.82,-5.66"/>
    </edge>
    <edge id=":15_0" function="internal">
        <lane id=":15_0_0" index="0" disallow="bus truck rail_fast" speed="4.89" length="2.69" width="4.18" shape="17.90,-46.12 17.98,-45.98 18.06,-45.85 18.14,-45.72 18.21,-45.58 18.29,-45.45 18.36,-45.33 18.44,-45.20 18.52,-45.08 18.60,-44.97 18.68,-44.86 18.77,-44.76 18.87,-44.67 18.96,-44.59 19.07,-44.52 19.18,-44.46 19.31,-44.41 19.44,-44.37 19.58,-44.35 19.73,-44.35"/>
    </edge>
    <edge id=":18_0" function="internal">
        <lane id=":18_0_0" index="0" disallow="bus truck rail_fast" speed="36.11" length="0.91" width="2.84" shape="19.94,-39.98 19.88,-39.98 19.81,-39.98 19.76,-39.99 19.71,-39.99 19.66,-39.99 19.62,-40.00 19.58,-40.00 19.54,-40.00 19.51,-40.01 19.47,-40.01 19.43,-40.01 19.40,-40.02 19.36,-40.02 19.32,-40.02 19.27,-40.01 19.22,-40.01 19.17,-40.00 19.11,-40.00 19.04,-39.99"/>
    </edge>
    <edge id=":2_0" function="internal">
        <lane id=":2_0_0" index="0" disallow="bus truck rail_fast" speed="6.04" length="7.51" width="2.51" shape="0.20,3.46 -4.20,-2.64"/>
    </edge>
    <edge id=":2_1" function="internal">
        <lane id=":2_1_0" index="0" disallow="rail_fast" speed="36.11" length="5.95" width="2.58" shape="0.20,3.46 0.55,-2.47"/>
        <lane id=":2_1_1" index="1" disallow="rail_fast" speed="36.11" length="5.95" width="3.13" shape="3.06,3.58 3.41,-2.36"/>
    </edge>
    <edge id=":20_0" function="internal">
        <lane id=":20_0_0" index="0" disallow="bus truck rail_fast" speed="7.40" length="9.99" width="2.67" shape="-6.76,-5.24 -6.08,-5.26 -5.43,-5.30 -4.81,-5.37 -4.22,-5.47 -3.67,-5.60 -3.14,-5.75 -2.64,-5.93 -2.17,-6.14 -1.74,-6.37 -1.33,-6.63 -0.96,-6.92 -0.61,-7.23 -0.30,-7.57 -0.01,-7.93 0.24,-8.33 0.46,-8.74 0.66,-9.19 0.82,-9.66 0.95,-10.16"/>
    </edge>
    <edge id=":20_1" function="internal">
        <lane id=":20_1_0" index="0" disallow="bus truck rail_fast" speed="36.11" length="7.26" width="2.69" shape="-6.76,-5.24 0.50,-5.17"/>
    </edge>
    <edge id=":21_0" function="internal">
        <lane id=":21_0_0" index="0" disallow="bus truck rail_fast" speed="3.28" length="3.79" width="2.47" shape="-3.19,-2.63 -6.99,-2.63"/>
    </edge>
    <edge id=":21_1" function="internal">
        <lane id=":21_1_0" index="0" disallow="bus truck rail_fast" speed="36.11" length="3.79" width="2.47" shape="-3.19,-2.62 -6.99,-2.63"/>
    </edge>
    <edge id=":23_0" function="internal">
        <lane id=":23_0_0" index="0" disallow="bus truck rail_fast" speed="36.11" length="5.04" width="2.96" shape="15.00,-6.30 15.37,-6.22 15.70,-6.14 16.00,-6.06 16.27,-5.99 16.51,-5.92 16.74,-5.86 16.96,-5.80 17.16,-5.75 17.36,-5.70 17.55,-5.66 17.75,-5.62 17.95,-5.59 18.17,-5.56 18.40,-5.54 18.65,-5.52 18.93,-5.50 19.24,-5.49 19.57,-5.48 19.95,-5.48"/>
    </edge>
    <edge id=":23_1" function="internal">
        <lane id=":23_1_0" index="0" disallow="rail_fast" speed="36.11" length="5.61" width="2.96" shape="14.35,-5.41 19.95,-5.48"/>
    </edge>
    <edge id=":26_0" function="internal">
        <lane id=":26_0_0" index="0" disallow="bus truck rail_fast" speed="5.98" length="6.09" width="2.50" shape="19.21,-2.62 18.66,-2.61 18.14,-2.60 17.64,-2.58 17.18,-2.56 16.74,-2.52 16.33,-2.48 15.95,-2.43 15.59,-2.38 15.27,-2.32 14.97,-2.25 14.69,-2.17 14.45,-2.08 14.23,-1.99 14.04,-1.89 13.88,-1.79 13.75,-1.67 13.64,-1.55 13.56,-1.42 13.51,-1.29"/>
    </edge>
    <edge id=":26_1" function="internal">
        <lane id=":26_1_0" index="0" disallow="rail_fast" speed="36.11" length="5.52" width="2.69" shape="19.21,-2.62 13.69,-2.62"/>
    </edge>
    <edge id=":27_0" function="internal">
        <lane id=":27_0_0" index="0" disallow="rail_fast" speed="36.11" length="4.32" width="2.61" shape="0.56,-2.67 0.84,-6.96"/>
        <lane id=":27_0_1" index="1" disallow="rail_fast" speed="36.11" length="4.32" width="3.11" shape="3.42,-2.56 3.71,-6.88"/>
    </edge>
    <edge id=":27_2" function="internal">
        <lane id=":27_2_0" index="0" disallow="bus truck rail_fast" speed="5.52" length="5.70" width="2.82" shape="3.42,-2.56 3.45,-2.79 3.50,-3.02 3.57,-3.23 3.67,-3.43 3.79,-3.62 3.93,-3.80 4.10,-3.97 4.29,-4.13 4.51,-4.27 4.75,-4.40 5.01,-4.53 5.29,-4.64 5.60,-4.73 5.94,-4.82 6.30,-4.90 6.68,-4.96 7.08,-5.01 7.51,-5.06 7.96,-5.09"/>
    </edge>
    <edge id=":28_0" function="internal">
        <lane id=":28_0_0" index="0" disallow="rail_fast" speed="36.11" length="1.73" width="2.53" shape="12.66,-0.98 12.76,-2.66"/>
        <lane id=":28_0_1" index="1" disallow="rail_fast" speed="36.11" length="1.73" width="3.14" shape="9.77,-1.01 9.86,-2.74"/>
        <lane id=":28_0_2" index="2" disallow="rail_fast" speed="36.11" length="1.73" width="3.29" shape="6.55,-1.04 6.65,-2.82"/>
    </edge>
    <edge id=":29_0" function="internal">
        <lane id=":29_0_0" index="0" disallow="rail_fast" speed="36.11" length="2.51" width="2.65" shape="0.85,-7.16 0.67,-4.42"/>
        <lane id=":29_0_1" index="1" disallow="rail_fast" speed="36.11" length="2.51" width="3.10" shape="3.72,-7.08 3.56,-4.80"/>
    </edge>
    <edge id=":3_0" function="internal">
        <lane id=":3_0_0" index="0" disallow="bus truck rail_fast" speed="36.11" length="5.70" width="2.53" shape="13.46,-1.09 13.34,-0.68 13.24,-0.31 13.15,0.02 13.06,0.33 12.98,0.61 12.91,0.86 12.84,1.10 12.78,1.33 12.73,1.55 12.68,1.77 12.64,2.00 12.60,2.23 12.56,2.47 12.52,2.73 12.49,3.02 12.46,3.33 12.43,3.68 12.40,4.06 12.37,4.49"/>
    </edge>
    <edge id=":3_1" function="internal">
        <lane id=":3_1_0" index="0" disallow="rail_fast" speed="36.11" length="6.92" width="2.53" shape="12.75,-2.46 12.37,4.49"/>
        <lane id=":3_1_1" index="1" disallow="rail_fast" speed="36.11" length="6.92" width="3.12" shape="9.85,-2.54 9.52,4.37"/>
        <lane id=":3_1_2" index="2" disallow="rail_fast" speed="36.11" length="6.92" width="3.24" shape="6.64,-2.62 6.27,4.24"/>
    </edge>
    <edge id=":3_4" function="internal">
        <lane id=":3_4_0" index="0" disallow="bus truck rail_fast" speed="14.45" length="7.58" width="3.24" shape="4.65,-3.03 4.87,-2.51 5.07,-2.05 5.26,-1.62 5.43,-1.24 5.59,-0.88 5.72,-0.55 5.85,-0.24 5.96,0.06 6.05,0.35 6.13,0.65 6.20,0.94 6.25,1.25 6.29,1.58 6.32,1.93 6.33,2.31 6.33,2.72 6.32,3.18 6.30,3.68 6.27,4.24"/>
    </edge>
    <edge id=":30_0" function="internal">
        <lane id=":30_0_0" index="0" disallow="rail_fast" speed="36.11" length="4.18" width="2.65" shape="12.91,-5.31 12.68,-1.18"/>
        <lane id=":30_0_1" index="1" disallow="rail_fast" speed="36.11" length="4.18" width="3.10" shape="10.00,-5.38 9.78,-1.21"/>
        <lane id=":30_0_2" index="2" disallow="rail_fast" speed="36.11" length="4.18" width="3.30" shape="6.80,-5.46 6.56,-1.24"/>
    </edge>
    <edge id=":30_3" function="internal">
        <lane id=":30_3_0" index="0" disallow="bus truck rail_fast" speed="6.13" length="7.27" width="2.40" shape="6.80,-5.46 6.76,-5.18 6.70,-4.92 6.60,-4.67 6.47,-4.44 6.31,-4.22 6.11,-4.01 5.89,-3.82 5.63,-3.64 5.35,-3.48 5.03,-3.33 4.68,-3.20 4.30,-3.08 3.89,-2.97 3.45,-2.88 2.97,-2.80 2.47,-2.73 1.93,-2.68 1.37,-2.64 0.77,-2.62"/>
    </edge>
    <edge id=":31_0" function="internal">
        <lane id=":31_0_0" index="0" disallow="rail_fast" speed="36.11" length="8.40" width="2.90" shape="5.74,-5.29 14.15,-5.41"/>
    </edge>
    <edge id=":31_1" function="internal">
        <lane id=":31_1_0" index="0" disallow="bus truck rail_fast" speed="36.11" length="5.99" width="2.90" shape="8.16,-5.10 14.15,-5.41"/>
    </edge>
    <edge id=":32_0" function="internal">
        <lane id=":32_0_0" index="0" disallow="bus truck rail_fast" speed="36.11" length="7.18" width="2.52" shape="13.49,-2.62 6.30,-2.56"/>
    </edge>
    <edge id=":32_1" function="internal">
        <lane id=":32_1_0" index="0" disallow="bus truck rail_fast" speed="7.05" length="8.63" width="2.69" shape="13.49,-2.62 12.71,-2.62 11.98,-2.64 11.28,-2.66 10.62,-2.70 10.00,-2.74 9.42,-2.80 8.88,-2.87 8.38,-2.94 7.91,-3.03 7.49,-3.13 7.10,-3.24 6.75,-3.36 6.44,-3.49 6.17,-3.63 5.94,-3.79 5.75,-3.95 5.59,-4.12 5.48,-4.30 5.40,-4.50"/>
    </edge>
    <edge id=":33_0" function="internal">
        <lane id=":33_0_0" index="0" disallow="rail_fast" speed="36.11" length="4.84" width="2.69" shape="0.70,-5.17 5.54,-5.28"/>
    </edge>
    <edge id=":33_1" function="internal">
        <lane id=":33_1_0" index="0" disallow="bus truck rail_fast" speed="5.66" length="4.61" width="2.46" shape="0.70,-5.17 1.02,-5.16 1.32,-5.14 1.61,-5.11 1.89,-5.06 2.16,-5.01 2.41,-4.95 2.65,-4.88 2.88,-4.80 3.10,-4.70 3.30,-4.60 3.49,-4.49 3.67,-4.37 3.84,-4.23 3.99,-4.09 4.13,-3.93 4.26,-3.77 4.38,-3.59 4.48,-3.41 4.57,-3.21"/>
    </edge>
    <edge id=":34_0" function="internal">
        <lane id=":34_0_0" index="0" disallow="bus truck rail_fast" speed="36.11" length="7.08" width="2.51" shape="6.10,-2.56 -0.97,-2.59"/>
    </edge>
    <edge id=":34_1" function="internal">
        <lane id=":34_1_0" index="0" disallow="bus truck rail_fast" speed="36.11" length="0.23" width="2.51" shape="-0.74,-2.58 -0.97,-2.59"/>
    </edge>
    <edge id=":5_0" function="internal">
        <lane id=":5_0_0" index="0" disallow="bus truck rail_fast" speed="36.11" length="19.92" width="3.10" shape="5.35,-4.69 5.14,-5.45 4.97,-6.22 4.81,-7.01 4.69,-7.81 4.58,-8.63 4.49,-9.47 4.42,-10.35 4.37,-11.26 4.34,-12.20 4.32,-13.19 4.31,-14.21 4.32,-15.29 4.33,-16.42 4.35,-17.61 4.38,-18.85 4.42,-20.16 4.46,-21.54 4.50,-22.99 4.54,-24.52"/>
    </edge>
    <edge id=":5_1" function="internal">
        <lane id=":5_1_0" index="0" disallow="bus truck rail_fast" speed="7.16" length="11.75" width="2.40" shape="1.33,-14.50 1.36,-15.23 1.35,-15.93 1.29,-16.59 1.19,-17.21 1.05,-17.79 0.86,-18.34 0.63,-18.84 0.35,-19.31 0.03,-19.73 -0.34,-20.12 -0.75,-20.47 -1.20,-20.78 -1.70,-21.05 -2.24,-21.28 -2.83,-21.48 -3.46,-21.63 -4.14,-21.74 -4.85,-21.82 -5.62,-21.86"/>
    </edge>
    <edge id=":5_2" function="internal">
        <lane id=":5_2_0" index="0" disallow="bus truck rail_fast" speed="36.11" length="10.10" width="2.76" shape="1.33,-14.50 1.56,-24.59"/>
    </edge>
    <edge id=":5_3" function="internal">
        <lane id=":5_3_0" index="0" disallow="bus truck rail_fast" speed="9.29" length="20.32" width="2.40" shape="0.69,-4.62 0.78,-6.37 0.83,-8.03 0.83,-9.59 0.78,-11.06 0.68,-12.43 0.54,-13.72 0.35,-14.90 0.11,-16.00 -0.17,-17.00 -0.51,-17.91 -0.88,-18.72 -1.31,-19.44 -1.78,-20.07 -2.30,-20.60 -2.87,-21.04 -3.49,-21.38 -4.15,-21.64 -4.86,-21.79 -5.62,-21.86"/>
    </edge>
    <edge id=":5_4" function="internal">
        <lane id=":5_4_0" index="0" disallow="rail_fast" speed="36.11" length="19.77" width="2.76" shape="0.69,-4.62 1.56,-24.59"/>
        <lane id=":5_4_1" index="1" disallow="rail_fast" speed="36.11" length="19.77" width="3.10" shape="3.57,-5.00 4.54,-24.52"/>
    </edge>
    <edge id=":6_0" function="internal">
        <lane id=":6_0_0" index="0" disallow="bus truck rail_fast" speed="6.81" length="9.91" width="2.95" shape="-3.60,-25.82 -3.07,-25.84 -2.56,-25.90 -2.08,-26.00 -1.64,-26.14 -1.21,-26.31 -0.82,-26.53 -0.46,-26.78 -0.12,-27.06 0.19,-27.39 0.47,-27.75 0.72,-28.16 0.95,-28.60 1.15,-29.07 1.32,-29.59 1.46,-30.14 1.57,-30.73 1.66,-31.36 1.72,-32.03 1.75,-32.73"/>
    </edge>
    <edge id=":6_1" function="internal">
        <lane id=":6_1_0" index="0" disallow="rail_fast" speed="36.11" length="7.94" width="2.95" shape="1.57,-24.79 1.75,-32.73"/>
        <lane id=":6_1_1" index="1" disallow="rail_fast" speed="36.11" length="7.94" width="3.11" shape="4.55,-24.72 4.77,-32.66"/>
    </edge>
    <edge id=":7_0" function="internal">
        <lane id=":7_0_0" index="0" disallow="rail_fast" speed="36.11" length="3.08" width="3.02" shape="2.19,-52.47 2.25,-55.55"/>
        <lane id=":7_0_1" index="1" disallow="rail_fast" speed="36.11" length="3.08" width="3.07" shape="5.28,-52.44 5.33,-55.53"/>
    </edge>

    <edge id="52746" from="1" to="2" priority="1" spreadType="center" length="11.72">
        <lane id="52746_0" index="0" disallow="rail_fast" speed="36.11" length="11.72" width="2.58" customShape="1" shape="-0.65,17.15 0.20,3.46"/>
        <lane id="52746_1" index="1" disallow="rail_fast" speed="36.11" length="11.72" width="3.07" customShape="1" shape="2.26,17.27 3.06,3.58"/>
    </edge>
    <edge id="52752" from="3" to="4" priority="1" spreadType="center" length="11.75">
        <lane id="52752_0" index="0" disallow="rail_fast" speed="36.11" length="11.75" width="2.53" customShape="1" shape="12.37,4.49 11.52,17.65"/>
        <lane id="52752_1" index="1" disallow="rail_fast" speed="36.11" length="11.75" width="3.12" customShape="1" shape="9.52,4.37 8.59,17.46"/>
        <lane id="52752_2" index="2" disallow="rail_fast" speed="36.11" length="11.75" width="3.24" customShape="1" shape="6.27,4.24 5.41,17.34"/>
    </edge>
    <edge id="52756" from="5" to="6" priority="1" spreadType="center" length="20.89">
        <lane id="52756_0" index="0" disallow="rail_fast" speed="36.11" length="20.89" width="2.76" customShape="1" shape="1.56,-24.59 1.57,-24.79"/>
        <lane id="52756_1" index="1" disallow="rail_fast" speed="36.11" length="20.89" width="3.10" customShape="1" shape="4.54,-24.52 4.55,-24.72"/>
    </edge>
    <edge id="52760" from="6" to="7" priority="1" spreadType="center" length="18.62">
        <lane id="52760_0" index="0" disallow="rail_fast" speed="36.11" length="18.62" width="2.95" customShape="1" shape="1.75,-32.73 2.01,-44.69 2.19,-52.47"/>
        <lane id="52760_1" index="1" disallow="rail_fast" speed="36.11" length="18.62" width="3.11" customShape="1" shape="4.77,-32.66 5.08,-44.65 5.28,-52.44"/>
    </edge>
    <edge id="52764" from="7" to="8" priority="1" spreadType="center" length="5.29">
        <lane id="52764_0" index="0" disallow="rail_fast" speed="36.11" length="5.29" width="3.02" customShape="1" shape="2.25,-55.55 2.32,-59.32"/>
        <lane id="52764_1" index="1" disallow="rail_fast" speed="36.11" length="5.29" width="3.07" customShape="1" shape="5.33,-55.53 5.36,-59.30"/>
    </edge>
    <edge id="52770" from="9" to="10" priority="1" spreadType="center" length="5.29">
        <lane id="52770_0" index="0" disallow="rail_fast" speed="36.11" length="5.29" width="2.82" customShape="1" shape="14.53,-59.33 14.55,-55.56"/>
        <lane id="52770_1" index="1" disallow="rail_fast" speed="36.11" length="5.29" width="2.98" customShape="1" shape="11.63,-59.32 11.63,-55.55"/>
        <lane id="52770_2" index="2" disallow="rail_fast" speed="36.11" length="5.29" width="3.24" customShape="1" shape="8.52,-59.32 8.51,-55.54"/>
    </edge>
    <edge id="52776" from="10" to="11" priority="1" spreadType="center" length="18.80">
        <lane id="52776_0" index="0" disallow="rail_fast" speed="36.11" length="18.80" width="2.82" customShape="1" shape="14.28,-42.96 14.28,-42.85"/>
        <lane id="52776_1" index="1" disallow="rail_fast" speed="36.11" length="18.80" width="3.00" customShape="1" shape="11.40,-44.68 11.40,-44.58"/>
        <lane id="52776_2" index="2" disallow="rail_fast" speed="36.11" length="18.80" width="3.24" customShape="1" shape="8.27,-44.72 8.27,-44.62"/>
    </edge>
    <edge id="52782" from="11" to="12" priority="1" spreadType="center" length="20.87">
        <lane id="52782_0" index="0" disallow="rail_fast" speed="36.11" length="20.87" width="2.83" customShape="1" shape="14.02,-32.80 13.79,-24.64 13.57,-16.53"/>
        <lane id="52782_1" index="1" disallow="rail_fast" speed="36.11" length="20.87" width="2.96" customShape="1" shape="11.11,-32.88 10.89,-24.71 10.67,-16.60"/>
        <lane id="52782_2" index="2" disallow="rail_fast" speed="36.11" length="20.87" width="3.27" customShape="1" shape="7.97,-32.96 7.75,-24.79 7.54,-16.68"/>
    </edge>
    <edge id="52784" from="5" to="13" priority="1" spreadType="center" length="15.39">
        <lane id="52784_0" index="0" disallow="bus truck rail_fast" speed="36.11" length="15.39" width="2.40" customShape="1" shape="-5.62,-21.86 -8.38,-21.92"/>
    </edge>
    <edge id="52786" from="14" to="6" priority="1" spreadType="center" length="17.76">
        <lane id="52786_0" index="0" disallow="bus truck rail_fast" speed="36.11" length="17.76" width="2.71" customShape="1" shape="-8.28,-25.79 -3.60,-25.82"/>
    </edge>
    <edge id="52788" from="10" to="15" priority="1" spreadType="center" length="11.72">
        <lane id="52788_0" index="0" disallow="bus truck rail_fast" speed="36.11" length="11.72" width="2.82" customShape="1" shape="17.79,-46.29 17.90,-46.12"/>
    </edge>
    <edge id="52790" from="15" to="16" priority="1" spreadType="center" length="12.65">
        <lane id="52790_0" index="0" disallow="rail_fast" speed="36.11" length="12.65" width="4.18" customShape="1" shape="19.73,-44.35 25.35,-44.37 31.67,-44.39"/>
    </edge>
    <edge id="52792" from="17" to="18" priority="1" spreadType="center" length="12.46">
        <lane id="52792_0" index="0" disallow="rail_fast" speed="36.11" length="12.46" width="4.54" customShape="1" shape="31.47,-39.98 25.23,-39.98 19.94,-39.98"/>
    </edge>
    <edge id="52794" from="18" to="11" priority="1" spreadType="center" length="7.96">
        <lane id="52794_0" index="0" disallow="bus truck rail_fast" speed="36.11" length="7.96" width="2.84" customShape="1" shape="19.04,-39.99 18.84,-39.96"/>
    </edge>
    <edge id="52796" from="19" to="20" priority="1" spreadType="center" length="8.41">
        <lane id="52796_0" index="0" disallow="bus truck rail_fast" speed="36.11" length="8.41" width="2.70" customShape="1" shape="-13.47,-5.26 -8.77,-5.22 -6.76,-5.24"/>
    </edge>
    <edge id="52798" from="21" to="22" priority="1" spreadType="center" length="8.41">
        <lane id="52798_0" index="0" disallow="bus truck rail_fast" speed="36.11" length="8.41" width="2.47" customShape="1" shape="-6.99,-2.63 -8.81,-2.61 -13.51,-2.65"/>
    </edge>
    <edge id="52800" from="23" to="24" priority="1" spreadType="center" length="32.71">
        <lane id="52800_0" index="0" disallow="rail_fast" speed="36.11" length="32.71" width="2.96" customShape="1" shape="19.95,-5.48 29.85,-5.49 38.03,-5.49 46.20,-5.49 54.38,-5.48"/>
    </edge>
    <edge id="52802" from="25" to="26" priority="1" spreadType="center" length="32.71">
        <lane id="52802_0" index="0" disallow="rail_fast" speed="36.11" length="32.71" width="2.73" customShape="1" shape="54.37,-2.62 46.19,-2.62 38.01,-2.63 29.83,-2.62 19.21,-2.62"/>
    </edge>
    <edge id="52806" from="2" to="27" priority="1" spreadType="center" length="6.77">
        <lane id="52806_0" index="0" disallow="rail_fast" speed="36.11" length="6.77" width="2.58" customShape="1" shape="0.55,-2.47 0.56,-2.67"/>
        <lane id="52806_1" index="1" disallow="rail_fast" speed="36.11" length="6.77" width="3.13" customShape="1" shape="3.41,-2.36 3.42,-2.56"/>
    </edge>
    <edge id="52812" from="28" to="3" priority="1" spreadType="center" length="6.87">
        <lane id="52812_0" index="0" disallow="rail_fast" speed="36.11" length="6.87" width="2.53" customShape="1" shape="12.76,-2.66 12.75,-2.46"/>
        <lane id="52812_1" index="1" disallow="rail_fast" speed="36.11" length="6.87" width="3.14" customShape="1" shape="9.86,-2.74 9.85,-2.54"/>
        <lane id="52812_2" index="2" disallow="rail_fast" speed="36.11" length="6.87" width="3.29" customShape="1" shape="6.65,-2.82 6.64,-2.62"/>
    </edge>
    <edge id="52816" from="29" to="5" priority="1" spreadType="center" length="7.82">
        <lane id="52816_0" index="0" disallow="rail_fast" speed="36.11" length="7.82" width="2.65" customShape="1" shape="0.67,-4.42 0.69,-4.62"/>
        <lane id="52816_1" index="1" disallow="rail_fast" speed="36.11" length="7.82" width="3.10" customShape="1" shape="3.56,-4.80 3.57,-5.00"/>
    </edge>
    <edge id="52822" from="12" to="30" priority="1" spreadType="center" length="7.39">
        <lane id="52822_0" index="0" disallow="rail_fast" speed="36.11" length="7.39" width="2.74" customShape="1" shape="12.93,-5.51 12.91,-5.31"/>
        <lane id="52822_1" index="1" disallow="rail_fast" speed="36.11" length="7.39" width="2.96" customShape="1" shape="10.01,-5.58 10.00,-5.38"/>
        <lane id="52822_2" index="2" disallow="rail_fast" speed="36.11" length="7.39" width="3.30" customShape="1" shape="6.82,-5.66 6.80,-5.46"/>
    </edge>
    <edge id="52824" from="31" to="23" priority="1" spreadType="center" length="7.38">
        <lane id="52824_0" index="0" disallow="rail_fast" speed="36.11" length="7.38" width="2.90" customShape="1" shape="14.15,-5.41 14.35,-5.41"/>
    </edge>
    <edge id="52826" from="26" to="32" priority="1" spreadType="center" length="7.55">
        <lane id="52826_0" index="0" disallow="rail_fast" speed="36.11" length="7.55" width="2.69" customShape="1" shape="13.69,-2.62 13.49,-2.62"/>
    </edge>
    <edge id="52828" from="20" to="33" priority="1" spreadType="center" length="4.47">
        <lane id="52828_0" index="0" disallow="rail_fast" speed="36.11" length="4.47" width="2.69" customShape="1" shape="0.50,-5.17 0.70,-5.17"/>
    </edge>
    <edge id="52830" from="2" to="21" priority="1" spreadType="center" length="12.12">
        <lane id="52830_0" index="0" disallow="bus truck rail_fast" speed="36.11" length="12.12" width="2.51" customShape="1" shape="-4.20,-2.64 -3.19,-2.63"/>
    </edge>
    <edge id="52832" from="26" to="3" priority="1" spreadType="center" length="15.10">
        <lane id="52832_0" index="0" disallow="bus truck rail_fast" speed="36.11" length="15.10" width="2.50" customShape="1" shape="13.51,-1.29 13.46,-1.09"/>
    </edge>
    <edge id="52834" from="12" to="23" priority="1" spreadType="center" length="14.79">
        <lane id="52834_0" index="0" disallow="bus truck rail_fast" speed="36.11" length="14.79" width="2.83" customShape="1" shape="14.81,-6.35 15.00,-6.30"/>
    </edge>
    <edge id="52836" from="20" to="5" priority="1" spreadType="center" length="13.50">
        <lane id="52836_0" index="0" disallow="bus truck rail_fast" speed="36.11" length="13.50" width="2.67" customShape="1" shape="0.95,-10.16 1.06,-10.64 1.33,-14.50"/>
    </edge>
    <edge id="52838" from="33" to="31" priority="1" spreadType="center" length="14.87">
        <lane id="52838_0" index="0" disallow="rail_fast" speed="36.11" length="14.87" width="2.69" customShape="1" shape="5.54,-5.28 5.74,-5.29"/>
    </edge>
    <edge id="52840" from="32" to="34" priority="1" spreadType="center" length="14.84">
        <lane id="52840_0" index="0" disallow="bus truck rail_fast" speed="36.11" length="14.84" width="2.52" customShape="1" shape="6.30,-2.56 6.10,-2.56"/>
    </edge>
    <edge id="52844" from="27" to="29" priority="1" spreadType="center" length="5.25">
        <lane id="52844_0" index="0" disallow="rail_fast" speed="36.11" length="5.25" width="2.61" customShape="1" shape="0.84,-6.96 0.85,-7.16"/>
        <lane id="52844_1" index="1" disallow="rail_fast" speed="36.11" length="5.25" width="3.11" customShape="1" shape="3.71,-6.88 3.72,-7.08"/>
    </edge>
    <edge id="52848" from="30" to="28" priority="1" spreadType="center" length="5.46">
        <lane id="52848_0" index="0" disallow="rail_fast" speed="36.11" length="5.46" width="2.65" customShape="1" shape="12.68,-1.18 12.66,-0.98"/>
        <lane id="52848_1" index="1" disallow="rail_fast" speed="36.11" length="5.46" width="3.10" customShape="1" shape="9.78,-1.21 9.77,-1.01"/>
        <lane id="52848_2" index="2" disallow="rail_fast" speed="36.11" length="5.46" width="3.30" customShape="1" shape="6.56,-1.24 6.55,-1.04"/>
    </edge>
    <edge id="52850" from="30" to="34" priority="1" spreadType="center" length="10.07">
        <lane id="52850_0" index="0" disallow="bus truck rail_fast" speed="36.11" length="10.07" width="2.40" customShape="1" shape="0.77,-2.62 -0.74,-2.58"/>
    </edge>
    <edge id="52852" from="27" to="31" priority="1" spreadType="center" length="13.46">
        <lane id="52852_0" index="0" disallow="bus truck rail_fast" speed="36.11" length="13.46" width="2.82" customShape="1" shape="7.96,-5.09 8.16,-5.10"/>
    </edge>
    <edge id="52854" from="33" to="3" priority="1" spreadType="center" length="14.53">
        <lane id="52854_0" index="0" disallow="bus truck rail_fast" speed="36.11" length="14.53" width="2.46" customShape="1" shape="4.57,-3.21 4.65,-3.03"/>
    </edge>
    <edge id="52856" from="32" to="5" priority="1" spreadType="center" length="18.63">
        <lane id="52856_0" index="0" disallow="bus truck rail_fast" speed="36.11" length="18.63" width="2.69" customShape="1" shape="5.40,-4.50 5.35,-4.69"/>
    </edge>
    <edge id="52858" from="34" to="21" priority="1" spreadType="center" length="4.36">
        <lane id="52858_0" index="0" disallow="rail_fast" speed="36.11" length="4.36" width="2.51" customShape="1" shape="-0.97,-2.59 -2.92,-2.61 -3.19,-2.62"/>
    </edge>

    <junction id="1" type="dead_end" x="0.81" y="17.19" incLanes="" intLanes="" shape="3.79,17.36 -1.93,17.03"/>
    <junction id="10" type="priority" x="11.57" y="-54.02" incLanes="52770_0 52770_1 52770_2" intLanes=":10_0_0 :10_1_0 :10_1_1 :10_1_2" shape="16.96,-43.65 21.13,-45.02 15.96,-55.56 6.89,-55.54 6.60,-43.00 15.69,-42.95 15.85,-43.56 16.03,-43.72 16.27,-43.79 16.58,-43.76">
        <request index="0" response="0000" foes="0000" cont="0"/>
        <request index="1" response="0000" foes="0000" cont="0"/>
        <request index="2" response="0000" foes="0000" cont="0"/>
        <request index="3" response="0000" foes="0000" cont="0"/>
    </junction>