<!-- generated on 2020-12-18 17:01:07.891212 by ipykernel_launcher.py v1_2_0+5214-53edc58fcd
-->
<connections>
	<connection contPos="-4.0" from="1499" fromLane="0" keepClear="true" to="1517" toLane="0"/>
	<connection contPos="-4.0" from="1499" fromLane="0" keepClear="true" to="1516" toLane="0"/>
	<connection contPos="-4.0" from="1500" fromLane="0" keepClear="true" to="1515" toLane="0"/>
	<connection contPos="-4.0" from="1500" fromLane="0" keepClear="true" to="1526" toLane="0"/>
	<connection contPos="-4.0" from="1502" fromLane="0" keepClear="true" to="1523" toLane="0"/>
	<connection contPos="-4.0" from="1502" fromLane="0" keepClear="true" to="1521" toLane="0"/>
	<connection contPos="-4.0" from="1503" fromLane="0" keepClear="true" to="1524" toLane="0"/>
	<connection contPos="-4.0" from="1503" fromLane="0" keepClear="true" to="1518" toLane="0"/>
	<connection contPos="-4.0" from="1503" fromLane="0" keepClear="true" to="1512" toLane="0"/>
	<connection contPos="-4.0" from="1506" fromLane="0" keepClear="true" to="1514" toLane="0"/>
	<connection contPos="-4.0" from="1506" fromLane="0" keepClear="true" to="1513" toLane="0"/>
	<connection contPos="-4.0" from="1508" fromLane="0" keepClear="true" to="1527" toLane="0"/>
	<connection contPos="-4.0" from="1508" fromLane="0" keepClear="true" to="1519" toLane="0"/>
	<connection contPos="-4.0" from="1510" fromLane="0" keepClear="true" to="1522" toLane="0"/>
	<connection contPos="-4.0" from="1510" fromLane="0" keepClear="true" to="1525" toLane="0"/>
	<connection contPos="-4.0" from="1510" fromLane="0" keepClear="true" to="1520" toLane="0"/>
	<connection contPos="-4.0" from="1512" fromLane="0" keepClear="true" to="1509" toLane="0"/>
	<connection contPos="-4.0" from="1513" fromLane="0" keepClear="true" to="1511" toLane="0"/>
	<connection contPos="-4.0" from="1514" fromLane="0" keepClear="true" to="1507" toLane="0"/>
	<connection contPos="-4.0" from="1515" fromLane="0" keepClear="true" to="1498" toLane="0"/>
	<connection contPos="-4.0" from="1516" fromLane="0" keepClear="true" to="1498" toLane="0"/>
	<connection contPos="-4.0" from="1517" fromLane="0" keepClear="true" to="1504" toLane="0"/>
	<connection contPos="-4.0" from="1518" fromLane="0" keepClear="true" to="1499" toLane="0"/>
	<connection contPos="-4.0" from="1519" fromLane="0" keepClear="true" to="1499" toLane="0"/>
	<connection contPos="-4.0" from="1520" fromLane="0" keepClear="true" to="1505" toLane="0"/>
	<connection contPos="-4.0" from="1521" fromLane="0" keepClear="true" to="1509" toLane="0"/>
	<connection contPos="-4.0" from="1522" fromLane="0" keepClear="true" to="1507" toLane="0"/>
	<connection contPos="-4.0" from="1523" fromLane="0" keepClear="true" to="1499" toLane="0"/>
	<connection contPos="-4.0" from="1524" fromLane="0" keepClear="true" to="1501" toLane="0"/>
	<connection contPos="-4.0" from="1525" fromLane="0" keepClear="true" to="1503" toLane="0"/>
	<connection contPos="-4.0" from="1526" fromLane="0" keepClear="true" to="1504" toLane="0"/>
	<connection contPos="-4.0" from="1527" fromLane="0" keepClear="true" to="1501" toLane="0"/>
</connections>
