<?xml version="1.0" encoding="UTF-8"?>

<!-- generated on Fri Dec 18 17:01:08 2020 by Eclipse SUMO netconvert Version 1.8.0
<configuration xmlns:xsi="http://www.w3.org/2001/XMLSchema-instance" xsi:noNamespaceSchemaLocation="http://sumo.dlr.de/xsd/netconvertConfiguration.xsd">

    <input>
        <node-files value="./converted_scenarios/SUMO/CHN_Sha-10_1_I-1-1/nodes.net.xml"/>
        <edge-files value="./converted_scenarios/SUMO/CHN_Sha-10_1_I-1-1/edges.net.xml"/>
        <connection-files value="./converted_scenarios/SUMO/CHN_Sha-10_1_I-1-1/_connections.net.xml"/>
        <tllogic-files value="./converted_scenarios/SUMO/CHN_Sha-10_1_I-1-1/_tll.net.xml"/>
    </input>

    <output>
        <output-file value="./converted_scenarios/SUMO/CHN_Sha-10_1_I-1-1/CHN_Sha-10_1_I-1-1.net.xml"/>
    </output>

    <processing>
        <plain.extend-edge-shape value="true"/>
        <geometry.remove.keep-edges.explicit value="true"/>
        <geometry.avoid-overlap value="true"/>
        <offset.disable-normalization value="true"/>
    </processing>

    <junctions>
        <no-turnarounds value="true"/>
        <junctions.internal-link-detail value="20"/>
    </junctions>

    <report>
        <aggregate-warnings value="5"/>
    </report>

    <random_number>
        <seed value="1234"/>
    </random_number>

</configuration>
-->

<net version="1.6" junctionCornerDetail="5" junctionLinkDetail="20" limitTurnSpeed="5.50" xmlns:xsi="http://www.w3.org/2001/XMLSchema-instance" xsi:noNamespaceSchemaLocation="http://sumo.dlr.de/xsd/net_file.xsd">

    <location netOffset="0.00,0.00" convBoundary="-171.06,-213.12,181.28,103.25" origBoundary="-171.06,-213.12,181.28,103.25" projParameter="!"/>

    <edge id=":1_0" function="internal">
        <lane id=":1_0_0" index="0" disallow="bus truck rail_fast" speed="36.11" length="2.96" width="2.50" shape="-68.15,-11.80 -69.62,-9.23"/>
    </edge>
    <edge id=":1_1" function="internal">
        <lane id=":1_1_0" index="0" disallow="bus truck rail_fast" speed="36.11" length="2.44" width="2.50" shape="-68.50,-11.40 -68.57,-11.23 -68.64,-11.08 -68.70,-10.95 -68.76,-10.83 -68.81,-10.72 -68.86,-10.61 -68.91,-10.52 -68.95,-10.43 -69.00,-10.34 -69.05,-10.26 -69.09,-10.17 -69.14,-10.08 -69.19,-9.99 -69.25,-9.89 -69.31,-9.78 -69.38,-9.67 -69.45,-9.54 -69.53,-9.39 -69.62,-9.23"/>
    </edge>
    <edge id=":10_0" function="internal">
        <lane id=":10_0_0" index="0" disallow="bus truck rail_fast" speed="6.85" length="8.29" width="2.50" shape="-33.23,-53.72 -33.42,-53.80 -33.69,-53.92 -34.02,-54.07 -34.42,-54.24 -34.87,-54.43 -35.35,-54.64 -35.87,-54.86 -36.41,-55.09 -36.96,-55.31 -37.51,-55.52 -38.05,-55.73 -38.58,-55.91 -39.08,-56.07 -39.55,-56.20 -39.97,-56.30 -40.33,-56.36 -40.63,-56.37 -40.85,-56.33 -41.00,-56.24"/>
    </edge>
    <edge id=":10_1" function="internal">
        <lane id=":10_1_0" index="0" disallow="bus truck rail_fast" speed="36.11" length="8.30" width="2.50" shape="-33.23,-53.72 -33.81,-53.95 -34.33,-54.16 -34.80,-54.34 -35.23,-54.51 -35.62,-54.66 -35.98,-54.80 -36.32,-54.93 -36.64,-55.06 -36.95,-55.19 -37.25,-55.32 -37.55,-55.46 -37.86,-55.61 -38.18,-55.78 -38.51,-55.97 -38.88,-56.17 -39.27,-56.41 -39.70,-56.68 -40.17,-56.98 -40.69,-57.31"/>
    </edge>
    <edge id=":11_0" function="internal">
        <lane id=":11_0_0" index="0" disallow="bus truck rail_fast" speed="36.11" length="4.22" width="2.49" shape="-11.21,-117.12 -11.20,-116.81 -11.19,-116.52 -11.18,-116.27 -11.18,-116.04 -11.18,-115.82 -11.18,-115.63 -11.19,-115.44 -11.19,-115.27 -11.21,-115.10 -11.22,-114.94 -11.24,-114.77 -11.26,-114.59 -11.28,-114.41 -11.30,-114.22 -11.33,-114.01 -11.36,-113.77 -11.40,-113.52 -11.43,-113.24 -11.47,-112.92"/>
    </edge>
    <edge id=":12_0" function="internal">
        <lane id=":12_0_0" index="0" disallow="bus truck rail_fast" speed="6.56" length="9.70" width="2.49" shape="-35.89,-66.10 -36.28,-65.46 -36.61,-64.85 -36.90,-64.26 -37.15,-63.68 -37.36,-63.13 -37.52,-62.60 -37.63,-62.09 -37.70,-61.60 -37.73,-61.14 -37.72,-60.69 -37.66,-60.26 -37.55,-59.86 -37.40,-59.48 -37.21,-59.11 -36.98,-58.77 -36.70,-58.45 -36.37,-58.15 -36.00,-57.87 -35.59,-57.61"/>
    </edge>
    <edge id=":12_1" function="internal">
        <lane id=":12_1_0" index="0" disallow="bus truck rail_fast" speed="36.11" length="8.44" width="2.49" shape="-35.89,-66.10 -40.13,-58.81"/>
    </edge>
    <edge id=":12_2" function="internal">
        <lane id=":12_2_0" index="0" disallow="bus truck rail_fast" speed="7.39" length="11.20" width="2.49" shape="-35.89,-66.10 -36.40,-65.31 -36.89,-64.58 -37.38,-63.89 -37.87,-63.26 -38.34,-62.69 -38.81,-62.16 -39.28,-61.69 -39.73,-61.27 -40.18,-60.90 -40.62,-60.59 -41.06,-60.33 -41.49,-60.12 -41.91,-59.96 -42.33,-59.85 -42.73,-59.80 -43.14,-59.80 -43.53,-59.85 -43.92,-59.96 -44.30,-60.11"/>
    </edge>
    <edge id=":13_0" function="internal">
        <lane id=":13_0_0" index="0" disallow="bus truck rail_fast" speed="36.11" length="8.12" width="2.50" shape="-64.75,-15.12 -64.43,-14.61 -64.14,-14.14 -63.89,-13.72 -63.65,-13.34 -63.44,-12.99 -63.23,-12.66 -63.04,-12.36 -62.86,-12.08 -62.67,-11.82 -62.47,-11.56 -62.27,-11.30 -62.06,-11.05 -61.82,-10.79 -61.56,-10.51 -61.27,-10.23 -60.94,-9.92 -60.58,-9.58 -60.18,-9.22 -59.72,-8.82"/>
    </edge>
    <edge id=":13_1" function="internal">
        <lane id=":13_1_0" index="0" disallow="bus truck rail_fast" speed="36.11" length="9.01" width="2.50" shape="-65.81,-15.43 -65.39,-14.91 -65.00,-14.44 -64.66,-14.01 -64.34,-13.62 -64.06,-13.27 -63.80,-12.94 -63.55,-12.63 -63.31,-12.35 -63.08,-12.07 -62.84,-11.80 -62.60,-11.53 -62.35,-11.26 -62.07,-10.98 -61.78,-10.69 -61.45,-10.38 -61.09,-10.04 -60.68,-9.67 -60.23,-9.27 -59.72,-8.82"/>
    </edge>
    <edge id=":15_0" function="internal">
        <lane id=":15_0_0" index="0" disallow="rail_fast" speed="36.11" length="3.00" width="2.50" shape="-5.12,-122.48 -2.41,-121.20"/>
    </edge>
    <edge id=":18_0" function="internal">
        <lane id=":18_0_0" index="0" disallow="rail_fast" speed="36.11" length="12.88" width="2.50" shape="-3.54,-118.97 -15.19,-124.47"/>
    </edge>
    <edge id=":18_1" function="internal">
        <lane id=":18_1_0" index="0" disallow="bus truck rail_fast" speed="9.43" length="12.39" width="2.49" shape="-3.54,-118.97 -4.48,-119.42 -5.36,-119.87 -6.20,-120.32 -6.98,-120.75 -7.72,-121.18 -8.41,-121.61 -9.05,-122.02 -9.64,-122.43 -10.18,-122.84 -10.67,-123.24 -11.11,-123.63 -11.51,-124.01 -11.85,-124.39 -12.14,-124.76 -12.39,-125.13 -12.58,-125.49 -12.73,-125.84 -12.82,-126.19 -12.87,-126.53"/>
    </edge>
    <edge id=":19_0" function="internal">
        <lane id=":19_0_0" index="0" disallow="bus truck rail_fast" speed="12.87" length="6.86" width="2.49" shape="-12.88,-126.73 -12.91,-127.23 -12.94,-127.69 -12.95,-128.10 -12.95,-128.48 -12.95,-128.82 -12.93,-129.14 -12.91,-129.44 -12.87,-129.72 -12.82,-129.99 -12.75,-130.26 -12.67,-130.53 -12.58,-130.80 -12.47,-131.08 -12.35,-131.38 -12.21,-131.70 -12.05,-132.05 -11.88,-132.43 -11.68,-132.85 -11.47,-133.31"/>
    </edge>
    <edge id=":19_1" function="internal">
        <lane id=":19_1_0" index="0" disallow="bus truck rail_fast" speed="4.34" length="7.83" width="2.49" shape="-15.21,-126.42 -11.47,-133.31"/>
    </edge>
    <edge id=":22_0" function="internal">
        <lane id=":22_0_0" index="0" disallow="bus truck rail_fast" speed="36.11" length="9.06" width="2.50" shape="-46.02,-64.29 -45.50,-63.86 -45.04,-63.46 -44.62,-63.11 -44.23,-62.78 -43.88,-62.49 -43.56,-62.22 -43.25,-61.97 -42.96,-61.74 -42.67,-61.52 -42.38,-61.30 -42.08,-61.10 -41.77,-60.89 -41.44,-60.67 -41.09,-60.45 -40.70,-60.21 -40.26,-59.96 -39.79,-59.69 -39.25,-59.39 -38.66,-59.06"/>
    </edge>
    <edge id=":22_1" function="internal">
        <lane id=":22_1_0" index="0" disallow="bus truck rail_fast" speed="7.20" length="7.01" width="2.50" shape="-46.02,-64.29 -45.54,-63.89 -45.09,-63.50 -44.67,-63.12 -44.27,-62.76 -43.90,-62.41 -43.56,-62.08 -43.24,-61.76 -42.96,-61.46 -42.70,-61.17 -42.46,-60.90 -42.26,-60.63 -42.08,-60.39 -41.93,-60.16 -41.80,-59.94 -41.70,-59.74 -41.63,-59.55 -41.59,-59.37 -41.58,-59.21 -41.59,-59.06"/>
    </edge>
    <edge id=":23_0" function="internal">
        <lane id=":23_0_0" index="0" disallow="bus truck rail_fast" speed="36.11" length="9.52" width="2.50" shape="-40.85,-57.42 -41.45,-57.81 -41.99,-58.17 -42.47,-58.49 -42.91,-58.78 -43.31,-59.05 -43.67,-59.30 -44.01,-59.53 -44.33,-59.76 -44.64,-59.98 -44.94,-60.21 -45.25,-60.44 -45.56,-60.68 -45.88,-60.94 -46.22,-61.22 -46.60,-61.52 -47.00,-61.86 -47.45,-62.23 -47.94,-62.64 -48.49,-63.10"/>
    </edge>
    <edge id=":23_1" function="internal">
        <lane id=":23_1_0" index="0" disallow="bus truck rail_fast" speed="36.11" length="2.67" width="2.50" shape="-46.44,-61.38 -48.49,-63.10"/>
    </edge>
    <edge id=":26_0" function="internal">
        <lane id=":26_0_0" index="0" disallow="bus truck rail_fast" speed="6.53" length="10.08" width="2.49" shape="-21.75,-130.27 -21.03,-129.97 -20.33,-129.70 -19.66,-129.47 -19.02,-129.28 -18.41,-129.13 -17.82,-129.01 -17.26,-128.93 -16.72,-128.89 -16.22,-128.89 -15.74,-128.92 -15.28,-128.99 -14.86,-129.10 -14.46,-129.25 -14.09,-129.43 -13.74,-129.66 -13.42,-129.92 -13.13,-130.22 -12.87,-130.55 -12.63,-130.93"/>
    </edge>
    <edge id=":26_1" function="internal">
        <lane id=":26_1_0" index="0" disallow="bus truck rail_fast" speed="36.11" length="13.13" width="2.50" shape="-21.75,-130.27 -9.85,-124.72"/>
    </edge>
    <edge id=":26_2" function="internal">
        <lane id=":26_2_0" index="0" disallow="bus truck rail_fast" speed="11.83" length="13.47" width="2.50" shape="-21.75,-130.27 -20.95,-129.91 -20.18,-129.53 -19.44,-129.15 -18.74,-128.75 -18.07,-128.34 -17.43,-127.92 -16.82,-127.49 -16.24,-127.05 -15.70,-126.60 -15.19,-126.14 -14.71,-125.66 -14.26,-125.18 -13.84,-124.69 -13.46,-124.18 -13.11,-123.66 -12.79,-123.14 -12.50,-122.60 -12.24,-122.05 -12.02,-121.49"/>
    </edge>
    <edge id=":27_0" function="internal">
        <lane id=":27_0_0" index="0" disallow="bus truck rail_fast" speed="36.11" length="2.97" width="2.50" shape="-19.79,-126.64 -22.49,-127.87"/>
    </edge>
    <edge id=":3_0" function="internal">
        <lane id=":3_0_0" index="0" disallow="bus truck rail_fast" speed="36.11" length="5.75" width="2.50" shape="-41.12,-56.08 -41.38,-55.73 -41.61,-55.43 -41.83,-55.15 -42.02,-54.90 -42.20,-54.67 -42.36,-54.46 -42.52,-54.26 -42.66,-54.07 -42.80,-53.88 -42.93,-53.70 -43.06,-53.51 -43.20,-53.32 -43.34,-53.11 -43.48,-52.89 -43.64,-52.64 -43.81,-52.37 -43.99,-52.08 -44.19,-51.74 -44.42,-51.38"/>
    </edge>
    <edge id=":3_1" function="internal">
        <lane id=":3_1_0" index="0" disallow="rail_fast" speed="36.11" length="8.38" width="2.50" shape="-40.23,-58.63 -44.42,-51.38"/>
    </edge>
    <edge id=":3_2" function="internal">
        <lane id=":3_2_0" index="0" disallow="bus truck rail_fast" speed="21.56" length="8.08" width="2.50" shape="-41.62,-58.87 -41.73,-58.28 -41.83,-57.74 -41.92,-57.26 -42.01,-56.82 -42.10,-56.42 -42.18,-56.06 -42.27,-55.71 -42.37,-55.39 -42.47,-55.08 -42.58,-54.78 -42.70,-54.48 -42.84,-54.18 -42.99,-53.86 -43.17,-53.53 -43.36,-53.17 -43.58,-52.78 -43.83,-52.36 -44.11,-51.89 -44.42,-51.38"/>
    </edge>
    <edge id=":4_0" function="internal">
        <lane id=":4_0_0" index="0" disallow="bus truck rail_fast" speed="7.65" length="8.41" width="2.50" shape="-61.52,-22.87 -61.92,-22.19 -62.30,-21.54 -62.65,-20.93 -62.98,-20.34 -63.28,-19.79 -63.56,-19.26 -63.81,-18.77 -64.04,-18.31 -64.24,-17.88 -64.41,-17.48 -64.56,-17.11 -64.69,-16.78 -64.79,-16.47 -64.86,-16.20 -64.91,-15.96 -64.94,-15.74 -64.94,-15.56 -64.91,-15.41 -64.86,-15.29"/>
    </edge>
    <edge id=":4_1" function="internal">
        <lane id=":4_1_0" index="0" disallow="bus truck rail_fast" speed="36.11" length="10.67" width="2.50" shape="-61.52,-22.87 -67.00,-13.71"/>
    </edge>
    <edge id=":6_0" function="internal">
        <lane id=":6_0_0" index="0" disallow="bus truck rail_fast" speed="15.94" length="8.22" width="2.50" shape="-72.55,-20.26 -72.00,-20.00 -71.50,-19.77 -71.04,-19.57 -70.62,-19.38 -70.24,-19.20 -69.89,-19.03 -69.57,-18.87 -69.27,-18.70 -68.98,-18.53 -68.70,-18.35 -68.44,-18.16 -68.17,-17.95 -67.90,-17.72 -67.62,-17.45 -67.33,-17.16 -67.02,-16.83 -66.69,-16.46 -66.33,-16.05 -65.94,-15.58"/>
    </edge>
    <edge id=":6_1" function="internal">
        <lane id=":6_1_0" index="0" disallow="bus truck rail_fast" speed="7.08" length="10.95" width="2.50" shape="-72.55,-20.26 -71.88,-19.92 -71.26,-19.58 -70.69,-19.22 -70.17,-18.85 -69.70,-18.46 -69.28,-18.06 -68.91,-17.65 -68.59,-17.22 -68.32,-16.78 -68.11,-16.32 -67.94,-15.85 -67.82,-15.36 -67.76,-14.87 -67.74,-14.35 -67.77,-13.83 -67.86,-13.29 -67.99,-12.73 -68.18,-12.17 -68.42,-11.58"/>
    </edge>
    <edge id=":7_0" function="internal">
        <lane id=":7_0_0" index="0" disallow="bus truck rail_fast" speed="36.11" length="3.39" width="2.50" shape="-35.21,-57.39 -34.99,-57.27 -34.79,-57.16 -34.61,-57.06 -34.44,-56.97 -34.29,-56.89 -34.15,-56.81 -34.02,-56.75 -33.89,-56.69 -33.77,-56.63 -33.64,-56.58 -33.52,-56.53 -33.39,-56.47 -33.25,-56.42 -33.11,-56.36 -32.95,-56.30 -32.77,-56.23 -32.58,-56.15 -32.37,-56.06 -32.13,-55.97"/>
    </edge>
    <edge id=":7_1" function="internal">
        <lane id=":7_1_0" index="0" disallow="bus truck rail_fast" speed="36.11" length="3.39" width="2.50" shape="-35.24,-57.31 -32.13,-55.97"/>
    </edge>

    <edge id="1498" from="1" to="2" priority="1" spreadType="center" length="113.45">
        <lane id="1498_0" index="0" disallow="rail_fast" speed="36.11" length="113.45" width="2.50" customShape="1" shape="-69.62,-9.23 -80.49,10.42 -92.08,32.12 -122.38,89.92"/>
    </edge>
    <edge id="1499" from="3" to="4" priority="1" spreadType="center" length="36.78">
        <lane id="1499_0" index="0" disallow="rail_fast" speed="36.11" length="36.78" width="2.50" customShape="1" shape="-44.42,-51.38 -52.86,-37.30 -61.52,-22.87"/>
    </edge>
    <edge id="1500" from="5" to="6" priority="1" spreadType="center" length="110.80">
        <lane id="1500_0" index="0" disallow="rail_fast" speed="36.11" length="110.80" width="2.50" customShape="1" shape="-171.06,-66.07 -120.82,-42.71 -72.55,-20.26"/>
    </edge>
    <edge id="1501" from="7" to="8" priority="1" spreadType="center" length="158.62">
        <lane id="1501_0" index="0" disallow="rail_fast" speed="36.11" length="158.62" width="2.50" customShape="1" shape="-32.13,-55.97 13.24,-37.45 40.16,-26.36 56.44,-19.75 74.70,-12.67 113.82,1.66"/>
    </edge>
    <edge id="1502" from="9" to="10" priority="1" spreadType="center" length="158.72">
        <lane id="1502_0" index="0" disallow="rail_fast" speed="36.11" length="158.72" width="2.50" customShape="1" shape="112.96,4.01 73.81,-10.33 55.54,-17.42 39.24,-24.03 12.31,-35.13 -33.23,-53.72"/>
    </edge>
    <edge id="1503" from="11" to="12" priority="1" spreadType="center" length="57.36">
        <lane id="1503_0" index="0" disallow="bus truck rail_fast" speed="36.11" length="57.36" width="2.49" customShape="1" shape="-11.47,-112.92 -11.71,-110.95 -12.56,-106.94 -13.76,-103.03 -15.47,-98.74 -17.72,-94.15 -20.80,-88.82 -25.28,-81.96 -33.92,-69.26 -35.89,-66.10"/>
    </edge>
    <edge id="1504" from="13" to="14" priority="1" spreadType="center" length="230.67">
        <lane id="1504_0" index="0" disallow="bus truck rail_fast" speed="36.11" length="230.67" width="2.50" customShape="1" shape="-59.72,-8.82 -58.25,-7.54 -54.57,-4.83 -50.69,-2.44 -46.18,-0.13 -41.04,2.05 -34.82,4.24 -26.56,6.68 -24.59,7.16 -22.56,7.25 -20.03,7.22 -18.53,7.48 -8.84,10.45 -1.67,13.00 4.41,15.55 9.40,18.02 13.79,20.57 17.97,23.44 21.52,26.30 24.84,29.43 27.89,32.83 29.30,34.93 30.39,37.22 31.31,40.12 32.09,44.09 33.29,52.12 34.13,55.57 35.01,57.94 36.21,60.17 37.75,62.18 39.90,64.33 42.27,66.24 45.26,68.15 48.88,69.98 53.57,71.89 65.04,75.98 69.69,77.99 86.76,85.79 126.72,103.25"/>
    </edge>
    <edge id="1505" from="15" to="16" priority="1" spreadType="center" length="205.16">
        <lane id="1505_0" index="0" disallow="rail_fast" speed="36.11" length="205.16" width="2.50" customShape="1" shape="-2.41,-121.20 88.76,-77.54 181.28,-33.24"/>
    </edge>
    <edge id="1506" from="17" to="18" priority="1" spreadType="center" length="205.16">
        <lane id="1506_0" index="0" disallow="rail_fast" speed="36.11" length="205.16" width="2.50" customShape="1" shape="180.20,-30.99 87.68,-75.29 -3.54,-118.97"/>
    </edge>
    <edge id="1507" from="19" to="20" priority="1" spreadType="center" length="89.75">
        <lane id="1507_0" index="0" disallow="rail_fast" speed="36.11" length="89.75" width="2.49" customShape="1" shape="-11.47,-133.31 6.36,-172.30 25.02,-213.12"/>
    </edge>
    <edge id="1508" from="21" to="22" priority="1" spreadType="center" length="105.38">
        <lane id="1508_0" index="0" disallow="bus truck rail_fast" speed="36.11" length="105.38" width="2.50" customShape="1" shape="-113.37,-142.73 -112.49,-141.51 -101.91,-126.25 -93.58,-114.32 -87.27,-105.88 -81.59,-98.86 -75.61,-92.08 -69.02,-85.19 -60.02,-76.45 -54.09,-71.03 -46.02,-64.29"/>
    </edge>
    <edge id="1509" from="23" to="24" priority="1" spreadType="center" length="106.03">
        <lane id="1509_0" index="0" disallow="bus truck rail_fast" speed="36.11" length="106.03" width="2.50" customShape="1" shape="-48.49,-63.10 -55.74,-69.15 -61.72,-74.62 -70.78,-83.41 -77.42,-90.36 -83.45,-97.19 -89.19,-104.27 -95.54,-112.77 -103.91,-124.76 -114.53,-140.06 -115.40,-141.27"/>
    </edge>
    <edge id="1510" from="25" to="26" priority="1" spreadType="center" length="84.64">
        <lane id="1510_0" index="0" disallow="bus truck rail_fast" speed="36.11" length="84.64" width="2.50" customShape="1" shape="-90.60,-175.57 -87.42,-173.11 -67.82,-157.28 -59.84,-151.13 -52.84,-146.19 -46.47,-142.14 -41.20,-139.17 -34.88,-136.06 -21.75,-130.27"/>
    </edge>
    <edge id="1511" from="27" to="28" priority="1" spreadType="center" length="85.22">
        <lane id="1511_0" index="0" disallow="bus truck rail_fast" speed="36.11" length="85.22" width="2.50" customShape="1" shape="-22.49,-127.87 -35.96,-133.80 -42.36,-136.96 -47.71,-139.96 -54.16,-144.07 -61.23,-149.05 -69.28,-155.24 -88.94,-171.12 -92.13,-173.59"/>
    </edge>
    <edge id="1512" from="12" to="23" priority="1" spreadType="center" length="11.86">
        <lane id="1512_0" index="0" disallow="bus truck rail_fast" speed="36.11" length="11.86" width="2.49" customShape="1" shape="-44.30,-60.11 -45.42,-60.65 -46.44,-61.38"/>
    </edge>
    <edge id="1513" from="18" to="27" priority="1" spreadType="center" length="18.01">
        <lane id="1513_0" index="0" disallow="rail_fast" speed="36.11" length="18.01" width="2.50" customShape="1" shape="-15.19,-124.47 -19.79,-126.64"/>
    </edge>
    <edge id="1514" from="18" to="19" priority="1" spreadType="center" length="15.82">
        <lane id="1514_0" index="0" disallow="bus truck rail_fast" speed="36.11" length="15.82" width="2.49" customShape="1" shape="-12.87,-126.53 -12.88,-126.73"/>
    </edge>
    <edge id="1515" from="6" to="1" priority="1" spreadType="center" length="10.72">
        <lane id="1515_0" index="0" disallow="bus truck rail_fast" speed="36.11" length="10.72" width="2.50" customShape="1" shape="-68.42,-11.58 -68.50,-11.40"/>
    </edge>
    <edge id="1516" from="4" to="1" priority="1" spreadType="center" length="13.18">
        <lane id="1516_0" index="0" disallow="bus truck rail_fast" speed="36.11" length="13.18" width="2.50" customShape="1" shape="-67.00,-13.71 -68.15,-11.80"/>
    </edge>
    <edge id="1517" from="4" to="13" priority="1" spreadType="center" length="12.48">
        <lane id="1517_0" index="0" disallow="bus truck rail_fast" speed="36.11" length="12.48" width="2.50" customShape="1" shape="-64.86,-15.29 -64.75,-15.12"/>
    </edge>
    <edge id="1518" from="12" to="3" priority="1" spreadType="center" length="13.12">
        <lane id="1518_0" index="0" disallow="rail_fast" speed="36.11" length="13.12" width="2.49" customShape="1" shape="-40.13,-58.81 -40.23,-58.63"/>
    </edge>
    <edge id="1519" from="22" to="3" priority="1" spreadType="center" length="11.50">
        <lane id="1519_0" index="0" disallow="bus truck rail_fast" speed="36.11" length="11.50" width="2.50" customShape="1" shape="-41.59,-59.06 -41.62,-58.87"/>
    </edge>
    <edge id="1520" from="26" to="15" priority="1" spreadType="center" length="18.08">
        <lane id="1520_0" index="0" disallow="rail_fast" speed="36.11" length="18.08" width="2.50" customShape="1" shape="-9.85,-124.72 -5.12,-122.48"/>
    </edge>
    <edge id="1521" from="10" to="23" priority="1" spreadType="center" length="13.82">
        <lane id="1521_0" index="0" disallow="bus truck rail_fast" speed="36.11" length="13.82" width="2.50" customShape="1" shape="-40.69,-57.31 -40.85,-57.42"/>
    </edge>
    <edge id="1522" from="26" to="19" priority="1" spreadType="center" length="9.15">
        <lane id="1522_0" index="0" disallow="bus truck rail_fast" speed="36.11" length="9.15" width="2.49" customShape="1" shape="-12.63,-130.93 -15.21,-126.42"/>
    </edge>
    <edge id="1523" from="10" to="3" priority="1" spreadType="center" length="9.72">
        <lane id="1523_0" index="0" disallow="bus truck rail_fast" speed="36.11" length="9.72" width="2.50" customShape="1" shape="-41.00,-56.24 -41.12,-56.08"/>
    </edge>
    <edge id="1524" from="12" to="7" priority="1" spreadType="center" length="10.11">
        <lane id="1524_0" index="0" disallow="bus truck rail_fast" speed="36.11" length="10.11" width="2.49" customShape="1" shape="-35.59,-57.61 -35.21,-57.39"/>
    </edge>
    <edge id="1525" from="26" to="11" priority="1" spreadType="center" length="18.35">
        <lane id="1525_0" index="0" disallow="bus truck rail_fast" speed="36.11" length="18.35" width="2.50" customShape="1" shape="-12.02,-121.49 -11.67,-120.54 -11.26,-118.35 -11.21,-117.12"/>
    </edge>
    <edge id="1526" from="6" to="13" priority="1" spreadType="center" length="13.13">
        <lane id="1526_0" index="0" disallow="bus truck rail_fast" speed="36.11" length="13.13" width="2.50" customShape="1" shape="-65.94,-15.58 -65.81,-15.43"/>
    </edge>
    <edge id="1527" from="22" to="7" priority="1" spreadType="center" length="13.08">
        <lane id="1527_0" index="0" disallow="bus truck rail_fast" speed="36.11" length="13.08" width="2.50" customShape="1" shape="-38.66,-59.06 -36.67,-57.96 -35.24,-57.31"/>
    </edge>

    <junction id="1" type="priority" x="-69.07" y="-10.22" incLanes="1516_0 1515_0" intLanes=":1_0_0 :1_1_0" shape="-67.07,-11.16 -69.22,-12.44 -70.71,-9.84 -68.53,-8.63 -67.95,-9.68 -67.75,-10.05 -67.57,-10.43 -67.36,-10.89 -67.08,-11.52 -69.36,-12.53 -71.77,-6.93 -73.06,-3.47 -73.23,-2.17 -72.29,-3.01 -70.24,-6.01">
        <request index="0" response="10" foes="10" cont="0"/>
        <request index="1" response="00" foes="01" cont="0"/>
    </junction>
    <junction id="10" type="priority" x="-34.64" y="-54.29" incLanes="1502_0" intLanes=":10_0_0 :10_1_0" shape="-33.70,-52.56 -32.76,-54.88 -34.71,-55.67 -36.16,-56.27 -37.32,-56.81 -38.46,-57.42 -39.79,-58.23 -41.56,-59.38 -42.60,-57.08 -42.18,-56.63 -42.14,-56.39 -42.21,-56.14 -42.39,-55.88 -42.68,-55.60 -42.79,-51.81">
        <request index="0" response="00" foes="00" cont="0"/>
        <request index="1" response="00" foes="00" cont="0"/>
    </junction>
    <junction id="11" type="priority" x="-11.22" y="-115.02" incLanes="1525_0" intLanes=":11_0_0" shape="-9.96,-117.06 -12.46,-117.18 -12.43,-115.66 -12.46,-115.12 -12.52,-114.59 -12.60,-113.94 -12.71,-113.07 -10.23,-112.78 -10.03,-114.36 -9.96,-114.92 -9.93,-115.47 -9.93,-116.15">
        <request index="0" response="0" foes="0" cont="0"/>
    </junction>
    <junction id="12" type="priority" x="-36.90" y="-64.48" incLanes="1503_0" intLanes=":12_0_0 :12_1_0 :12_2_0" shape="-37.50,-57.52 -33.13,-57.72 -34.84,-65.44 -36.95,-66.76 -38.47,-64.59 -39.95,-63.00 -41.40,-61.97 -42.82,-61.51 -44.21,-61.62 -45.57,-62.30 -43.45,-58.65 -42.64,-58.32 -42.42,-58.09 -42.34,-57.81 -42.37,-57.48 -42.53,-57.11 -40.37,-55.88 -39.34,-57.29 -38.86,-57.68 -38.39,-57.84 -37.93,-57.79">
        <request index="0" response="000" foes="000" cont="0"/>
        <request index="1" response="000" foes="000" cont="0"/>
        <request index="2" response="000" foes="000" cont="0"/>
    </junction>
    <junction id="13" type="priority" x="-61.30" y="-10.20" incLanes="1517_0 1526_0" intLanes=":13_0_0 :13_1_0" shape="-60.54,-7.88 -58.90,-9.76 -60.51,-11.40 -61.65,-13.08 -62.32,-14.81 -62.53,-16.60 -62.26,-18.43 -61.53,-20.32 -64.92,-18.66 -65.34,-17.94 -65.61,-17.80 -65.94,-17.79 -66.31,-17.93 -66.67,-18.14 -68.46,-16.39 -66.55,-14.75 -65.32,-13.41 -64.41,-12.20 -63.51,-10.97 -62.32,-9.58">
        <request index="0" response="00" foes="10" cont="0"/>
        <request index="1" response="01" foes="01" cont="0"/>
    </junction>
    <junction id="14" type="dead_end" x="126.72" y="103.25" incLanes="1504_0" intLanes="" shape="127.22,102.10 126.22,104.39"/>
    <junction id="15" type="priority" x="-3.76" y="-121.84" incLanes="1520_0" intLanes=":15_0_0" shape="-2.95,-120.07 -1.87,-122.32 -4.59,-123.61 -5.65,-121.35">
        <request index="0" response="0" foes="0" cont="0"/>
    </junction>
    <junction id="16" type="dead_end" x="181.28" y="-33.24" incLanes="1505_0" intLanes="" shape="181.82,-34.37 180.74,-32.11"/>
    <junction id="17" type="dead_end" x="180.20" y="-30.99" incLanes="" intLanes="" shape="180.74,-32.11 179.66,-29.86"/>
    <junction id="18" type="priority" x="-4.85" y="-119.59" incLanes="1506_0" intLanes=":18_0_0 :18_1_0" shape="-4.08,-117.84 -3.00,-120.09 -5.82,-121.57 -8.09,-123.05 -9.81,-124.53 -10.99,-126.01 -11.63,-127.49 -11.72,-128.97 -13.91,-126.32 -13.84,-125.69 -13.93,-125.52 -14.09,-125.45 -14.33,-125.48 -14.65,-125.60 -15.72,-123.34">
        <request index="0" response="00" foes="00" cont="0"/>
        <request index="1" response="00" foes="00" cont="0"/>
    </junction>
    <junction id="19" type="priority" x="-12.30" y="-131.49" incLanes="1514_0 1522_0" intLanes=":19_0_0 :19_1_0" shape="-13.81,-125.94 -10.62,-125.34 -11.49,-127.24 -11.56,-128.41 -11.40,-129.72 -10.99,-131.18 -10.34,-132.79 -12.61,-133.82 -14.27,-131.28 -15.23,-130.52 -16.28,-130.12 -17.42,-130.06 -18.65,-130.35 -16.07,-127.41 -15.15,-127.22 -14.75,-127.01 -14.39,-126.72 -14.07,-126.36">
        <request index="0" response="10" foes="10" cont="0"/>
        <request index="1" response="00" foes="01" cont="0"/>
    </junction>
    <junction id="2" type="dead_end" x="-122.38" y="89.91" incLanes="1498_0" intLanes="" shape="-121.27,90.50 -123.49,89.33"/>
    <junction id="20" type="dead_end" x="25.02" y="-213.12" incLanes="1507_0" intLanes="" shape="23.89,-213.63 26.15,-212.60"/>
    <junction id="21" type="dead_end" x="-113.37" y="-142.73" incLanes="" intLanes="" shape="-114.39,-142.00 -112.36,-143.46"/>
    <junction id="22" type="priority" x="-44.86" y="-63.32" incLanes="1508_0" intLanes=":22_0_0 :22_1_0" shape="-43.67,-55.39 -40.65,-57.33 -40.40,-57.95 -40.22,-58.13 -40.00,-58.21 -39.73,-58.19 -39.43,-58.06 -37.90,-60.07 -40.78,-61.73 -41.74,-62.39 -42.66,-63.11 -43.76,-64.02 -45.22,-65.25 -46.82,-63.33 -44.37,-60.69 -43.67,-59.37 -43.32,-58.04 -43.32,-56.72">
        <request index="0" response="00" foes="00" cont="0"/>
        <request index="1" response="00" foes="00" cont="0"/>
    </junction>
    <junction id="23" type="priority" x="-46.44" y="-61.38" incLanes="1521_0 1512_0" intLanes=":23_0_0 :23_1_0" shape="-40.15,-55.60 -38.62,-57.61 -39.40,-58.34 -39.50,-58.77 -39.41,-59.24 -39.13,-59.75 -38.65,-60.31 -38.20,-64.80 -39.52,-63.25 -40.94,-62.27 -42.47,-61.87 -44.11,-62.03 -45.84,-62.76 -47.69,-64.05 -49.29,-62.14 -46.10,-59.45 -44.95,-58.54 -43.75,-57.70 -42.24,-56.78">
        <request index="0" response="00" foes="10" cont="0"/>
        <request index="1" response="01" foes="01" cont="0"/>
    </junction>
    <junction id="24" type="dead_end" x="-115.40" y="-141.27" incLanes="1509_0" intLanes="" shape="-116.42,-140.54 -114.39,-142.00"/>
    <junction id="25" type="dead_end" x="-90.60" y="-175.57" incLanes="" intLanes="" shape="-91.37,-174.58 -89.84,-176.56"/>
    <junction id="26" type="priority" x="-20.11" y="-129.56" incLanes="1510_0" intLanes=":26_0_0 :26_1_0 :26_2_0" shape="-12.88,-120.19 -11.17,-122.78 -11.31,-123.50 -11.23,-123.69 -11.05,-123.77 -10.77,-123.73 -10.38,-123.59 -9.32,-125.84 -11.58,-127.10 -12.26,-127.65 -12.64,-128.16 -12.72,-128.62 -12.51,-129.03 -12.77,-133.19 -21.24,-131.42 -22.25,-129.13 -19.66,-127.86 -17.48,-126.50 -15.71,-125.05 -14.36,-123.52 -13.41,-121.91">
        <request index="0" response="000" foes="000" cont="0"/>
        <request index="1" response="000" foes="000" cont="0"/>
        <request index="2" response="000" foes="000" cont="0"/>
    </junction>
    <junction id="27" type="priority" x="-21.14" y="-127.27" incLanes="1513_0" intLanes=":27_0_0" shape="-20.33,-125.51 -19.26,-127.77 -21.99,-129.02 -23.00,-126.73">
        <request index="0" response="0" foes="0" cont="0"/>
    </junction>
    <junction id="28" type="dead_end" x="-92.13" y="-173.59" incLanes="1511_0" intLanes="" shape="-92.89,-172.60 -91.36,-174.58"/>
    <junction id="3" type="priority" x="-43.40" y="-53.08" incLanes="1523_0 1518_0 1519_0" intLanes=":3_0_0 :3_1_0 :3_2_0" shape="-35.86,-53.39 -38.08,-56.52 -38.83,-57.08 -38.89,-57.63 -38.74,-58.35 -38.39,-59.25 -37.83,-60.33 -40.00,-61.56 -40.53,-60.97 -40.82,-60.91 -41.11,-61.00 -41.42,-61.24 -41.74,-61.63 -45.59,-62.29 -43.81,-59.45 -43.58,-57.81 -43.78,-56.03 -44.41,-54.10 -45.49,-52.02 -43.35,-50.73 -41.37,-52.94 -40.18,-53.55 -38.87,-53.83 -37.43,-53.77">
        <request index="0" response="000" foes="110" cont="0"/>
        <request index="1" response="101" foes="101" cont="0"/>
        <request index="2" response="001" foes="011" cont="0"/>
    </junction>