<routes>
	<vehicle depart="0.1" departLane="0" departPos="39.07029440177966" departSpeed="0.8047" id="31" type="passenger">
		<route edges="1503 1518 1499 1516 1498"/>
	</vehicle>
	<vehicle depart="0.1" departLane="0" departPos="0" departSpeed="1.2625" id="32" type="passenger">
		<route edges="1514 1507"/>
	</vehicle>
	<vehicle depart="0.1" departLane="0" departPos="0" departSpeed="0.0" id="33" type="passenger">
		<route edges="1519 1499 1516 1498"/>
	</vehicle>
	<vehicle depart="0.1" departLane="0" departPos="110.80214541489232" departSpeed="0.0" id="34" type="passenger">
		<route edges="1500 1515 1498"/>
	</vehicle>
	<vehicle depart="0.1" departLane="0" departPos="110.80214541489232" departSpeed="0.003" id="35" type="passenger">
		<route edges="1500 1515 1498"/>
	</vehicle>
	<vehicle depart="0.1" departLane="0" departPos="105.37501711716237" departSpeed="0.0" id="36" type="passenger">
		<route edges="1508 1519 1499 1516 1498"/>
	</vehicle>
	<vehicle depart="0.1" departLane="0" departPos="92.14923737047282" departSpeed="0.0007" id="37" type="passenger">
		<route edges="1508 1519 1499 1516 1498"/>
	</vehicle>
	<vehicle depart="0.1" departLane="0" departPos="110.80214541489232" departSpeed="0.0342" id="38" type="passenger">
		<route edges="1500 1515 1498"/>
	</vehicle>
	<vehicle depart="0.1" departLane="0" departPos="195.47084130774672" departSpeed="4.929" id="39" type="passenger">
		<route edges="1506 1514 1507"/>
	</vehicle>
	<vehicle depart="0.1" departLane="0" departPos="27.706516188861983" departSpeed="3.1042" id="310" type="passenger">
		<route edges="1503 1518 1499 1516 1498"/>
	</vehicle>
	<vehicle depart="0.1" departLane="0" departPos="179.07304821948938" departSpeed="6.8575" id="311" type="passenger">
		<route edges="1506 1513 1511"/>
	</vehicle>
	<vehicle depart="0.1" departLane="0" departPos="84.64354110937768" departSpeed="0.0052" id="312" type="passenger">
		<route edges="1508 1519 1499 1516 1498"/>
	</vehicle>
	<vehicle depart="0.1" departLane="0" departPos="0" departSpeed="8.9468" id="314" type="passenger">
		<route edges="1517 1526 1504"/>
	</vehicle>
	<vehicle depart="0.1" departLane="0" departPos="77.1175520430712" departSpeed="0.0263" id="316" type="passenger">
		<route edges="1508 1519 1499 1516 1498"/>
	</vehicle>
	<vehicle depart="0.1" departLane="0" departPos="28.564253451013926" departSpeed="15.9501" id="317" type="passenger">
		<route edges="1509"/>
	</vehicle>
	<vehicle depart="0.1" departLane="0" departPos="47.346743519557606" departSpeed="0.0" id="319" type="passenger">
		<route edges="1503 1518 1499 1516 1498"/>
	</vehicle>
	<vehicle depart="0.1" departLane="0" departPos="205.16443818715288" departSpeed="8.0045" id="320" type="passenger">
		<route edges="1506 1514 1507"/>
	</vehicle>
	<vehicle depart="0.1" departLane="0" departPos="69.51739340243493" departSpeed="0.1069" id="321" type="passenger">
		<route edges="1508 1519 1499 1516 1498"/>
	</vehicle>
	<vehicle depart="0.1" departLane="0" departPos="5.661945200495185" departSpeed="5.8236" id="322" type="passenger">
		<route edges="1523 1499 1517 1526 1504"/>
	</vehicle>
	<vehicle depart="0.1" departLane="0" departPos="110.80214541489232" departSpeed="0.195" id="323" type="passenger">
		<route edges="1500 1515 1498"/>
	</vehicle>
	<vehicle depart="0.1" departLane="0" departPos="0" departSpeed="13.7518" id="324" type="passenger">
		<route edges="1505"/>
	</vehicle>
	<vehicle depart="0.1" departLane="0" departPos="0" departSpeed="8.8398" id="325" type="passenger">
		<route edges="1506 1514 1507"/>
	</vehicle>
	<vehicle depart="0.1" departLane="0" departPos="61.707402812043014" departSpeed="0.323" id="326" type="passenger">
		<route edges="1508 1519 1499 1516 1498"/>
	</vehicle>
	<vehicle depart="0.1" departLane="0" departPos="158.71863071379386" departSpeed="7.3262" id="327" type="passenger">
		<route edges="1502 1523 1499 1516 1498"/>
	</vehicle>
	<vehicle depart="0.1" departLane="0" departPos="0" departSpeed="0.7338" id="328" type="passenger">
		<route edges="1500 1515 1498"/>
	</vehicle>
	<vehicle depart="0.1" departLane="0" departPos="0" departSpeed="9.0172" id="329" type="passenger">
		<route edges="1503 1518 1499 1516 1498"/>
	</vehicle>
	<vehicle depart="0.1" departLane="0" departPos="53.463412063659675" departSpeed="0.7419" id="330" type="passenger">
		<route edges="1508 1519 1499 1516 1498"/>
	</vehicle>
	<vehicle depart="0.1" departLane="0" departPos="0" departSpeed="9.3991" id="331" type="passenger">
		<route edges="1506 1513 1511"/>
	</vehicle>
	<vehicle depart="0.1" departLane="0" departPos="0" departSpeed="1.6751" id="333" type="passenger">
		<route edges="1500 1515 1498"/>
	</vehicle>
	<vehicle depart="0.1" departLane="0" departPos="0" departSpeed="4.1239" id="334" type="passenger">
		<route edges="1525 1503 1518 1499 1516 1498"/>
	</vehicle>
	<vehicle depart="0.1" departLane="0" departPos="0" departSpeed="9.8561" id="335" type="passenger">
		<route edges="1506 1513 1511"/>
	</vehicle>
	<vehicle depart="0.1" departLane="0" departPos="44.56079991826218" departSpeed="1.2997" id="336" type="passenger">
		<route edges="1508 1519 1499 1516 1498"/>
	</vehicle>
	<vehicle depart="0.1" departLane="0" departPos="158.71863071379386" departSpeed="9.7659" id="337" type="passenger">
		<route edges="1502 1523 1499 1517 1504"/>
	</vehicle>
	<vehicle depart="0.1" departLane="0" departPos="84.6372382219251" departSpeed="5.8658" id="338" type="passenger">
		<route edges="1510 1525 1503 1518 1499 1516 1498"/>
	</vehicle>
	<vehicle depart="0.1" departLane="0" departPos="0" departSpeed="2.6179" id="339" type="passenger">
		<route edges="1500 1515 1498"/>
	</vehicle>
	<vehicle depart="0.1" departLane="0" departPos="0" departSpeed="10.1881" id="340" type="passenger">
		<route edges="1506 1514 1507"/>
	</vehicle>
	<vehicle depart="0.1" departLane="0" departPos="34.95728368606156" departSpeed="1.9065" id="341" type="passenger">
		<route edges="1508 1519 1499 1516 1498"/>
	</vehicle>
	<vehicle depart="0.1" departLane="0" departPos="89.36916515994135" departSpeed="10.8291" id="342" type="passenger">
		<route edges="1502 1523 1499 1517 1526 1504"/>
	</vehicle>
	<vehicle depart="0.1" departLane="0" departPos="0" departSpeed="3.5592" id="343" type="passenger">
		<route edges="1500 1515 1498"/>
	</vehicle>
	<vehicle depart="0.1" departLane="0" departPos="57.01054875672739" departSpeed="6.7039" id="344" type="passenger">
		<route edges="1510 1525 1503 1518 1499 1516 1498"/>
	</vehicle>
	<vehicle depart="0.1" departLane="0" departPos="0" departSpeed="10.3654" id="345" type="passenger">
		<route edges="1506 1514 1507"/>
	</vehicle>
	<vehicle depart="0.1" departLane="0" departPos="24.8384926498237" departSpeed="2.3408" id="346" type="passenger">
		<route edges="1508 1519 1499 1516 1498"/>
	</vehicle>
	<vehicle depart="0.1" departLane="0" departPos="68.74459831722703" departSpeed="11.4559" id="347" type="passenger">
		<route edges="1502 1523 1499 1516 1498"/>
	</vehicle>
	<vehicle depart="0.1" departLane="0" departPos="0" departSpeed="4.1291" id="348" type="passenger">
		<route edges="1500 1515 1498"/>
	</vehicle>
	<vehicle depart="0.1" departLane="0" departPos="0" departSpeed="12.5464" id="349" type="passenger">
		<route edges="1506 1514 1507"/>
	</vehicle>
	<vehicle depart="0.1" departLane="0" departPos="42.22236880117241" departSpeed="6.9612" id="350" type="passenger">
		<route edges="1510 1525 1503 1518 1499 1516 1498"/>
	</vehicle>
	<vehicle depart="0.1" departLane="0" departPos="0" departSpeed="11.6816" id="351" type="passenger">
		<route edges="1502 1523 1499 1516 1498"/>
	</vehicle>
	<vehicle depart="0.1" departLane="0" departPos="0" departSpeed="4.3044" id="352" type="passenger">
		<route edges="1500 1515 1498"/>
	</vehicle>
	<vehicle depart="0.1" departLane="0" departPos="0" departSpeed="2.6231" id="353" type="passenger">
		<route edges="1508 1519 1499 1516 1498"/>
	</vehicle>
	<vehicle depart="0.1" departLane="0" departPos="0" departSpeed="6.7735" id="354" type="passenger">
		<route edges="1510 1525 1503 1518 1499 1516 1498"/>
	</vehicle>
	<vehicle depart="0.1" departLane="0" departPos="0" departSpeed="8.8961" id="355" type="passenger">
		<route edges="1502 1521 1509"/>
	</vehicle>
	<vehicle depart="0.1" departLane="0" departPos="0" departSpeed="10.0831" id="356" type="passenger">
		<route edges="1506 1514 1507"/>
	</vehicle>
	<vehicle depart="0.1" departLane="0" departPos="0" departSpeed="3.9812" id="357" type="passenger">
		<route edges="1500 1515 1498"/>
	</vehicle>
	<vehicle depart="0.1" departLane="0" departPos="0" departSpeed="5.9341" id="358" type="passenger">
		<route edges="1510 1525 1503 1518 1499 1516 1498"/>
	</vehicle>
	<vehicle depart="0.1" departLane="0" departPos="0" departSpeed="7.1121" id="359" type="passenger">
		<route edges="1506 1514 1507"/>
	</vehicle>
	<vehicle depart="0.1" departLane="0" departPos="0" departSpeed="5.9406" id="360" type="passenger">
		<route edges="1502 1523 1499 1516 1498"/>
	</vehicle>
	<vehicle depart="0.1" departLane="0" departPos="0" departSpeed="2.1432" id="361" type="passenger">
		<route edges="1508 1519 1499 1516 1498"/>
	</vehicle>
	<vehicle depart="0.1" departLane="0" departPos="0" departSpeed="3.9777" id="362" type="passenger">
		<route edges="1510 1525 1503 1518 1499 1516 1498"/>
	</vehicle>
	<vehicle depart="0.1" departLane="0" departPos="0" departSpeed="3.9346" id="363" type="passenger">
		<route edges="1506 1514 1507"/>
	</vehicle>
	<vehicle depart="0.1" departLane="0" departPos="0" departSpeed="1.6758" id="364" type="passenger">
		<route edges="1500 1515 1498"/>
	</vehicle>
	<vehicle depart="0.1" departLane="0" departPos="0" departSpeed="2.878" id="365" type="passenger">
		<route edges="1502 1523 1499 1516 1498"/>
	</vehicle>
</routes>
