<routes>
	<vehicle depart="0.1" departLane="0" departPos="49.72093953696529" departSpeed="6.8806073" id="331" type="bicycle">
		<route edges="44327 44330 44333 44342 44345"/>
	</vehicle>
	<vehicle depart="0.1" departLane="0" departPos="2.5" departSpeed="9.8072234" id="37" type="passenger">
		<route edges="44330 44333 44342"/>
	</vehicle>
	<vehicle depart="0.1" departLane="0" departPos="19.69056057417388" departSpeed="7.4617703" id="310" type="passenger">
		<route edges=":31_1 44485 44326"/>
	</vehicle>
	<vehicle depart="0.1" departLane="0" departPos="5.390792318338195" departSpeed="12.563258" id="314" type="passenger">
		<route edges="44342 44345"/>
	</vehicle>
	<vehicle depart="0.1" departLane="0" departPos="9.708775586374482" departSpeed="7.8023512" id="318" type="passenger">
		<route edges=":31_0 44481 44345"/>
	</vehicle>
	<vehicle depart="0.1" departLane="0" departPos="69.02196371152772" departSpeed="0.0" id="327" type="passenger">
		<route edges="44327 44484"/>
	</vehicle>
</routes>
