<routes>
	<vehicle depart="0.1" departLane="2" departPos="30.651093425281147" departSpeed="6.9431645" id="329" type="bicycle">
		<route edges="10126"/>
	</vehicle>
	<vehicle depart="0.1" departLane="1" departPos="32.01630407850715" departSpeed="9.2920863" id="314" type="passenger">
		<route edges=":7_0 10126"/>
	</vehicle>
	<vehicle depart="0.1" departLane="3" departPos="14.706444202792715" departSpeed="16.182517" id="355" type="passenger">
		<route edges="10184 10126"/>
	</vehicle>
	<vehicle depart="0.1" departLane="1" departPos="56.363935904821375" departSpeed="19.299118" id="356" type="passenger">
		<route edges="11029 10184 10126"/>
	</vehicle>
</routes>
