<routes>
	<vehicle depart="0.1" departLane="0" departPos="21.495666880564766" departSpeed="5.2873537" id="347" type="bus">
		<route edges=":71_1 4534 4658"/>
	</vehicle>
	<vehicle depart="0.1" departLane="0" departPos="32.04071617999094" departSpeed="0.90370834" id="37" type="passenger">
		<route edges="4799 4531"/>
	</vehicle>
	<vehicle depart="0.1" departLane="0" departPos="14.741308455674744" departSpeed="0.0" id="318" type="passenger">
		<route edges=":71_5 4530"/>
	</vehicle>
	<vehicle depart="0.1" departLane="0" departPos="7.1228674555600335" departSpeed="0.13455132" id="325" type="passenger">
		<route edges=":71_5 4530"/>
	</vehicle>
	<vehicle depart="0.1" departLane="0" departPos="27.723347499761246" departSpeed="4.5778065" id="329" type="passenger">
		<route edges=":74_4 4528 4531"/>
	</vehicle>
	<vehicle depart="0.1" departLane="0" departPos="25.750169143049792" departSpeed="1.117757" id="337" type="passenger">
		<route edges="4799 4531"/>
	</vehicle>
	<vehicle depart="0.1" departLane="0" departPos="11.711398895606433" departSpeed="1.3820743" id="345" type="passenger">
		<route edges="4799 4531"/>
	</vehicle>
	<vehicle depart="0.1" departLane="0" departPos="2.5" departSpeed="6.6190456" id="360" type="passenger">
		<route edges=":69_4 4531"/>
	</vehicle>
	<vehicle depart="0.1" departLane="0" departPos="47.902813175838276" departSpeed="1.848957" id="34" type="motorcycle">
		<route edges="4799 4527"/>
	</vehicle>
</routes>
