<routes>
	<vehicle depart="0.1" departLane="0" departPos="47.44223944108105" departSpeed="0.0021850896" id="312" type="bicycle">
		<route edges="148 92"/>
	</vehicle>
	<vehicle depart="0.1" departLane="0" departPos="11.140166998867691" departSpeed="7.186955" id="347" type="bus">
		<route edges="149"/>
	</vehicle>
	<vehicle depart="0.1" departLane="0" departPos="17.281430341065057" departSpeed="3.9062537" id="369" type="bus">
		<route edges="91 145 139"/>
	</vehicle>
	<vehicle depart="0.1" departLane="0" departPos="75.09875194155451" departSpeed="3.1814581e-05" id="38" type="passenger">
		<route edges="146 92"/>
	</vehicle>
	<vehicle depart="0.1" departLane="0" departPos="68.17024909708657" departSpeed="0.0005011802" id="39" type="passenger">
		<route edges="146 92"/>
	</vehicle>
	<vehicle depart="0.1" departLane="0" departPos="53.022055947297545" departSpeed="0.00083940226" id="311" type="passenger">
		<route edges="148 92"/>
	</vehicle>
	<vehicle depart="0.1" departLane="0" departPos="66.89094836901468" departSpeed="0.0" id="314" type="passenger">
		<route edges="148 92"/>
	</vehicle>
	<vehicle depart="0.1" departLane="0" departPos="82.40435594957796" departSpeed="0.0" id="315" type="passenger">
		<route edges="146 92"/>
	</vehicle>
	<vehicle depart="0.1" departLane="0" departPos="60.09509009303276" departSpeed="0.00014687015" id="316" type="passenger">
		<route edges="148 92"/>
	</vehicle>
	<vehicle depart="0.1" departLane="0" departPos="39.21278978822333" departSpeed="13.501211" id="318" type="passenger">
		<route edges="151 177"/>
	</vehicle>
	<vehicle depart="0.1" departLane="0" departPos="45.85348037153682" departSpeed="0.0022354434" id="322" type="passenger">
		<route edges="148 92"/>
	</vehicle>
	<vehicle depart="0.1" departLane="0" departPos="11.965511059495396" departSpeed="10.314825" id="324" type="passenger">
		<route edges="151 177"/>
	</vehicle>
	<vehicle depart="0.1" departLane="0" departPos="38.55119921831985" departSpeed="0.004097659" id="328" type="passenger">
		<route edges="148 92"/>
	</vehicle>
	<vehicle depart="0.1" departLane="0" departPos="2.5" departSpeed="0.0" id="330" type="passenger">
		<route edges="143 151"/>
	</vehicle>
	<vehicle depart="0.1" departLane="0" departPos="65.8046572536408" departSpeed="8.6782258" id="337" type="passenger">
		<route edges="145 151 177"/>
	</vehicle>
	<vehicle depart="0.1" departLane="0" departPos="8.062975089888571" departSpeed="0.0" id="338" type="passenger">
		<route edges="140 143"/>
	</vehicle>
	<vehicle depart="0.1" departLane="0" departPos="31.444290398318476" departSpeed="0.0066284238" id="339" type="passenger">
		<route edges="148 92"/>
	</vehicle>
	<vehicle depart="0.1" departLane="0" departPos="58.4429889365561" departSpeed="14.936105" id="340" type="passenger">
		<route edges="152 146"/>
	</vehicle>
	<vehicle depart="0.1" departLane="0" departPos="24.7305825869339" departSpeed="0.012623115" id="345" type="passenger">
		<route edges="148 92"/>
	</vehicle>
	<vehicle depart="0.1" departLane="0" departPos="17.59881541311596" departSpeed="0.03202166" id="348" type="passenger">
		<route edges="148 92"/>
	</vehicle>
	<vehicle depart="0.1" departLane="0" departPos="70.829234475521" departSpeed="7.2237932" id="352" type="passenger">
		<route edges="91 145 139"/>
	</vehicle>
	<vehicle depart="0.1" departLane="0" departPos="15.828146905035736" departSpeed="0.19782694" id="355" type="passenger">
		<route edges="178 366"/>
	</vehicle>
	<vehicle depart="0.1" departLane="0" departPos="56.80851358446114" departSpeed="6.8857767" id="357" type="passenger">
		<route edges="91 145 139"/>
	</vehicle>
	<vehicle depart="0.1" departLane="0" departPos="60.90089625307133" departSpeed="10.204728" id="358" type="passenger">
		<route edges="210 177"/>
	</vehicle>
	<vehicle depart="0.1" departLane="0" departPos="10.419000842863467" departSpeed="0.077373447" id="359" type="passenger">
		<route edges="148 92"/>
	</vehicle>
	<vehicle depart="0.1" departLane="0" departPos="45.4511348173553" departSpeed="9.3146605" id="361" type="passenger">
		<route edges="210 177"/>
	</vehicle>
	<vehicle depart="0.1" departLane="0" departPos="42.87457927895526" departSpeed="6.7258387" id="362" type="passenger">
		<route edges="91 145 139"/>
	</vehicle>
	<vehicle depart="0.1" departLane="0" departPos="8.350394003156426" departSpeed="0.3602554" id="363" type="passenger">
		<route edges="178 366"/>
	</vehicle>
	<vehicle depart="0.1" departLane="0" departPos="29.20778765544302" departSpeed="6.6283418" id="364" type="passenger">
		<route edges="91 145 139"/>
	</vehicle>
	<vehicle depart="0.1" departLane="0" departPos="74.23045273275036" departSpeed="17.577281" id="36" type="motorcycle">
		<route edges="151 177"/>
	</vehicle>
	<vehicle depart="0.1" departLane="0" departPos="82.10806316736965" departSpeed="15.646094" id="329" type="truck">
		<route edges="152 146"/>
	</vehicle>
	<vehicle depart="0.1" departLane="0" departPos="9.610174987602445" departSpeed="10.818124" id="353" type="truck">
		<route edges=":38_0 152 146"/>
	</vehicle>
</routes>
