<routes>
	<vehicle depart="0.1" departLane="0" departPos="40.51504257367982" departSpeed="4.4146316" id="1" type="passenger">
		<route edges="50201 50213 50197"/>
	</vehicle>
	<vehicle depart="0.1" departLane="0" departPos="77.52126919181985" departSpeed="3.2589551" id="2" type="passenger">
		<route edges="50195 50211 50199"/>
	</vehicle>
	<vehicle depart="0.1" departLane="0" departPos="138.14721448918314" departSpeed="2.64074" id="4" type="passenger">
		<route edges="50205 50207 50197"/>
	</vehicle>
	<vehicle depart="0.1" departLane="0" departPos="146.14724690333617" departSpeed="6.6035643" id="5" type="passenger">
		<route edges="50205 50217 50199"/>
	</vehicle>
	<vehicle depart="0.1" departLane="0" departPos="32.51414677419757" departSpeed="1.8245717" id="7" type="passenger">
		<route edges="50201 50213 50197"/>
	</vehicle>
</routes>
