<!-- generated on 2020-12-18 15:41:32.307822 by ipykernel_launcher.py v1_2_0+5214-53edc58fcd
-->
<edges>
	<edge from="1" function="normal" id="2" length="1180.0" numLanes="1" priority="1" speed="36.11111111111111" spreadType="center" to="2">
		<lane allow="pedestrian rail private passenger ship delivery vip emergency bicycle rail_electric army rail_urban trailer coach bus custom2 tram taxi evehicle custom1 motorcycle authority truck hov moped" index="0" length="1180.0" shape="-430.0,1.75 -429.0,1.75 -428.0,1.75 -427.0,1.75 -426.0,1.75 -425.0,1.75 -424.0,1.75 -423.0,1.75 -422.0,1.75 -421.0,1.75 -420.0,1.75 -419.0,1.75 -418.0,1.75 -417.0,1.75 -416.0,1.75 -415.0,1.75 -414.0,1.75 -413.0,1.75 -412.0,1.75 -411.0,1.75 -410.0,1.75 -409.0,1.75 -408.0,1.75 -407.0,1.75 -406.0,1.75 -405.0,1.75 -404.0,1.75 -403.0,1.75 -402.0,1.75 -401.0,1.75 -400.0,1.75 -399.0,1.75 -398.0,1.75 -397.0,1.75 -396.0,1.75 -395.0,1.75 -394.0,1.75 -393.0,1.75 -392.0,1.75 -391.0,1.75 -390.0,1.75 -389.0,1.75 -388.0,1.75 -387.0,1.75 -386.0,1.75 -385.0,1.75 -384.0,1.75 -383.0,1.75 -382.0,1.75 -381.0,1.75 -380.0,1.75 -379.0,1.75 -378.0,1.75 -377.0,1.75 -376.0,1.75 -375.0,1.75 -374.0,1.75 -373.0,1.75 -372.0,1.75 -371.0,1.75 -370.0,1.75 -369.0,1.75 -368.0,1.75 -367.0,1.75 -366.0,1.75 -365.0,1.75 -364.0,1.75 -363.0,1.75 -362.0,1.75 -361.0,1.75 -360.0,1.75 -359.0,1.75 -358.0,1.75 -357.0,1.75 -356.0,1.75 -355.0,1.75 -354.0,1.75 -353.0,1.75 -352.0,1.75 -351.0,1.75 -350.0,1.75 -349.0,1.75 -348.0,1.75 -347.0,1.75 -346.0,1.75 -345.0,1.75 -344.0,1.75 -343.0,1.75 -342.0,1.75 -341.0,1.75 -340.0,1.75 -339.0,1.75 -338.0,1.75 -337.0,1.75 -336.0,1.75 -335.0,1.75 -334.0,1.75 -333.0,1.75 -332.0,1.75 -331.0,1.75 -330.0,1.75 -329.0,1.75 -328.0,1.75 -327.0,1.75 -326.0,1.75 -325.0,1.75 -324.0,1.75 -323.0,1.75 -322.0,1.75 -321.0,1.75 -320.0,1.75 -319.0,1.75 -318.0,1.75 -317.0,1.75 -316.0,1.75 -315.0,1.75 -314.0,1.75 -313.0,1.75 -312.0,1.75 -311.0,1.75 -310.0,1.75 -309.0,1.75 -308.0,1.75 -307.0,1.75 -306.0,1.75 -305.0,1.75 -304.0,1.75 -303.0,1.75 -302.0,1.75 -301.0,1.75 -300.0,1.75 -299.0,1.75 -298.0,1.75 -297.0,1.75 -296.0,1.75 -295.0,1.75 -294.0,1.75 -293.0,1.75 -292.0,1.75 -291.0,1.75 -290.0,1.75 -289.0,1.75 -288.0,1.75 -287.0,1.75 -286.0,1.75 -285.0,1.75 -284.0,1.75 -283.0,1.75 -282.0,1.75 -281.0,1.75 -280.0,1.75 -279.0,1.75 -278.0,1.75 -277.0,1.75 -276.0,1.75 -275.0,1.75 -274.0,1.75 -273.0,1.75 -272.0,1.75 -271.0,1.75 -270.0,1.75 -269.0,1.75 -268.0,1.75 -267.0,1.75 -266.0,1.75 -265.0,1.75 -264.0,1.75 -263.0,1.75 -262.0,1.75 -261.0,1.75 -260.0,1.75 -259.0,1.75 -258.0,1.75 -257.0,1.75 -256.0,1.75 -255.0,1.75 -254.0,1.75 -253.0,1.75 -252.0,1.75 -251.0,1.75 -250.0,1.75 -249.0,1.75 -248.0,1.75 -247.0,1.75 -246.0,1.75 -245.0,1.75 -244.0,1.75 -243.0,1.75 -242.0,1.75 -241.0,1.75 -240.0,1.75 -239.0,1.75 -238.0,1.75 -237.0,1.75 -236.0,1.75 -235.0,1.75 -234.0,1.75 -233.0,1.75 -232.0,1.75 -231.0,1.75 -230.0,1.75 -229.0,1.75 -228.0,1.75 -227.0,1.75 -226.0,1.75 -225.0,1.75 -224.0,1.75 -223.0,1.75 -222.0,1.75 -221.0,1.75 -220.0,1.75 -219.0,1.75 -218.0,1.75 -217.0,1.75 -216.0,1.75 -215.0,1.75 -214.0,1.75 -213.0,1.75 -212.0,1.75 -211.0,1.75 -210.0,1.75 -209.0,1.75 -208.0,1.75 -207.0,1.75 -206.0,1.75 -205.0,1.75 -204.0,1.75 -203.0,1.75 -202.0,1.75 -201.0,1.75 -200.0,1.75 -199.0,1.75 -198.0,1.75 -197.0,1.75 -196.0,1.75 -195.0,1.75 -194.0,1.75 -193.0,1.75 -192.0,1.75 -191.0,1.75 -190.0,1.75 -189.0,1.75 -188.0,1.75 -187.0,1.75 -186.0,1.75 -185.0,1.75 -184.0,1.75 -183.0,1.75 -182.0,1.75 -181.0,1.75 -180.0,1.75 -179.0,1.75 -178.0,1.75 -177.0,1.75 -176.0,1.75 -175.0,1.75 -174.0,1.75 -173.0,1.75 -172.0,1.75 -171.0,1.75 -170.0,1.75 -169.0,1.75 -168.0,1.75 -167.0,1.75 -166.0,1.75 -165.0,1.75 -164.0,1.75 -163.0,1.75 -162.0,1.75 -161.0,1.75 -160.0,1.75 -159.0,1.75 -158.0,1.75 -157.0,1.75 -156.0,1.75 -155.0,1.75 -154.0,1.75 -153.0,1.75 -152.0,1.75 -151.0,1.75 -150.0,1.75 -149.0,1.75 -148.0,1.75 -147.0,1.75 -146.0,1.75 -145.0,1.75 -144.0,1.75 -143.0,1.75 -142.0,1.75 -141.0,1.75 -140.0,1.75 -139.0,1.75 -138.0,1.75 -137.0,1.75 -136.0,1.75 -135.0,1.75 -134.0,1.75 -133.0,1.75 -132.0,1.75 -131.0,1.75 -130.0,1.75 -129.0,1.75 -128.0,1.75 -127.0,1.75 -126.0,1.75 -125.0,1.75 -124.0,1.75 -123.0,1.75 -122.0,1.75 -121.0,1.75 -120.0,1.75 -119.0,1.75 -118.0,1.75 -117.0,1.75 -116.0,1.75 -115.0,1.75 -114.0,1.75 -113.0,1.75 -112.0,1.75 -111.0,1.75 -110.0,1.75 -109.0,1.75 -108.0,1.75 -107.0,1.75 -106.0,1.75 -105.0,1.75 -104.0,1.75 -103.0,1.75 -102.0,1.75 -101.0,1.75 -100.0,1.75 -99.0,1.75 -98.0,1.75 -97.0,1.75 -96.0,1.75 -95.0,1.75 -94.0,1.75 -93.0,1.75 -92.0,1.75 -91.0,1.75 -90.0,1.75 -89.0,1.75 -88.0,1.75 -87.0,1.75 -86.0,1.75 -85.0,1.75 -84.0,1.75 -83.0,1.75 -82.0,1.75 -81.0,1.75 -80.0,1.75 -79.0,1.75 -78.0,1.75 -77.0,1.75 -76.0,1.75 -75.0,1.75 -74.0,1.75 -73.0,1.75 -72.0,1.75 -71.0,1.75 -70.0,1.75 -69.0,1.75 -68.0,1.75 -67.0,1.75 -66.0,1.75 -65.0,1.75 -64.0,1.75 -63.0,1.75 -62.0,1.75 -61.0,1.75 -60.0,1.75 -59.0,1.75 -58.0,1.75 -57.0,1.75 -56.0,1.75 -55.0,1.75 -54.0,1.75 -53.0,1.75 -52.0,1.75 -51.0,1.75 -50.0,1.75 -49.0,1.75 -48.0,1.75 -47.0,1.75 -46.0,1.75 -45.0,1.75 -44.0,1.75 -43.0,1.75 -42.0,1.75 -41.0,1.75 -40.0,1.75 -39.0,1.75 -38.0,1.75 -37.0,1.75 -36.0,1.75 -35.0,1.75 -34.0,1.75 -33.0,1.75 -32.0,1.75 -31.0,1.75 -30.0,1.75 -29.0,1.75 -28.0,1.75 -27.0,1.75 -26.0,1.75 -25.0,1.75 -24.0,1.75 -23.0,1.75 -22.0,1.75 -21.0,1.75 -20.0,1.75 -19.0,1.75 -18.0,1.75 -17.0,1.75 -16.0,1.75 -15.0,1.75 -14.0,1.75 -13.0,1.75 -12.0,1.75 -11.0,1.75 -10.0,1.75 -9.0,1.75 -8.0,1.75 -7.0,1.75 -6.0,1.75 -5.0,1.75 -4.0,1.75 -3.0,1.75 -2.0,1.75 -1.0,1.75 0.0,1.75 1.0,1.75 2.0,1.75 3.0,1.75 4.0,1.75 5.0,1.75 6.0,1.75 7.0,1.75 8.0,1.75 9.0,1.75 10.0,1.75 11.0,1.75 12.0,1.75 13.0,1.75 14.0,1.75 15.0,1.75 16.0,1.75 17.0,1.75 18.0,1.75 19.0,1.75 20.0,1.75 21.0,1.75 22.0,1.75 23.0,1.75 24.0,1.75 25.0,1.75 26.0,1.75 27.0,1.75 28.0,1.75 29.0,1.75 30.0,1.75 31.0,1.75 32.0,1.75 33.0,1.75 34.0,1.75 35.0,1.75 36.0,1.75 37.0,1.75 38.0,1.75 39.0,1.75 40.0,1.75 41.0,1.75 42.0,1.75 43.0,1.75 44.0,1.75 45.0,1.75 46.0,1.75 47.0,1.75 48.0,1.75 49.0,1.75 50.0,1.75 51.0,1.75 52.0,1.75 53.0,1.75 54.0,1.75 55.0,1.75 56.0,1.75 57.0,1.75 58.0,1.75 59.0,1.75 60.0,1.75 61.0,1.75 62.0,1.75 63.0,1.75 64.0,1.75 65.0,1.75 66.0,1.75 67.0,1.75 68.0,1.75 69.0,1.75 70.0,1.75 71.0,1.75 72.0,1.75 73.0,1.75 74.0,1.75 75.0,1.75 76.0,1.75 77.0,1.75 78.0,1.75 79.0,1.75 80.0,1.75 81.0,1.75 82.0,1.75 83.0,1.75 84.0,1.75 85.0,1.75 86.0,1.75 87.0,1.75 88.0,1.75 89.0,1.75 90.0,1.75 91.0,1.75 92.0,1.75 93.0,1.75 94.0,1.75 95.0,1.75 96.0,1.75 97.0,1.75 98.0,1.75 99.0,1.75 100.0,1.75 101.0,1.75 102.0,1.75 103.0,1.75 104.0,1.75 105.0,1.75 106.0,1.75 107.0,1.75 108.0,1.75 109.0,1.75 110.0,1.75 111.0,1.75 112.0,1.75 113.0,1.75 114.0,1.75 115.0,1.75 116.0,1.75 117.0,1.75 118.0,1.75 119.0,1.75 120.0,1.75 121.0,1.75 122.0,1.75 123.0,1.75 124.0,1.75 125.0,1.75 126.0,1.75 127.0,1.75 128.0,1.75 129.0,1.75 130.0,1.75 131.0,1.75 132.0,1.75 133.0,1.75 134.0,1.75 135.0,1.75 136.0,1.75 137.0,1.75 138.0,1.75 139.0,1.75 140.0,1.75 141.0,1.75 142.0,1.75 143.0,1.75 144.0,1.75 145.0,1.75 146.0,1.75 147.0,1.75 148.0,1.75 149.0,1.75 150.0,1.75 151.0,1.75 152.0,1.75 153.0,1.75 154.0,1.75 155.0,1.75 156.0,1.75 157.0,1.75 158.0,1.75 159.0,1.75 160.0,1.75 161.0,1.75 162.0,1.75 163.0,1.75 164.0,1.75 165.0,1.75 166.0,1.75 167.0,1.75 168.0,1.75 169.0,1.75 170.0,1.75 171.0,1.75 172.0,1.75 173.0,1.75 174.0,1.75 175.0,1.75 176.0,1.75 177.0,1.75 178.0,1.75 179.0,1.75 180.0,1.75 181.0,1.75 182.0,1.75 183.0,1.75 184.0,1.75 185.0,1.75 186.0,1.75 187.0,1.75 188.0,1.75 189.0,1.75 190.0,1.75 191.0,1.75 192.0,1.75 193.0,1.75 194.0,1.75 195.0,1.75 196.0,1.75 197.0,1.75 198.0,1.75 199.0,1.75 200.0,1.75 201.0,1.75 202.0,1.75 203.0,1.75 204.0,1.75 205.0,1.75 206.0,1.75 207.0,1.75 208.0,1.75 209.0,1.75 210.0,1.75 211.0,1.75 212.0,1.75 213.0,1.75 214.0,1.75 215.0,1.75 216.0,1.75 217.0,1.75 218.0,1.75 219.0,1.75 220.0,1.75 221.0,1.75 222.0,1.75 223.0,1.75 224.0,1.75 225.0,1.75 226.0,1.75 227.0,1.75 228.0,1.75 229.0,1.75 230.0,1.75 231.0,1.75 232.0,1.75 233.0,1.75 234.0,1.75 235.0,1.75 236.0,1.75 237.0,1.75 238.0,1.75 239.0,1.75 240.0,1.75 241.0,1.75 242.0,1.75 243.0,1.75 244.0,1.75 245.0,1.75 246.0,1.75 247.0,1.75 248.0,1.75 249.0,1.75 250.0,1.75 251.0,1.75 252.0,1.75 253.0,1.75 254.0,1.75 255.0,1.75 256.0,1.75 257.0,1.75 258.0,1.75 259.0,1.75 260.0,1.75 261.0,1.75 262.0,1.75 263.0,1.75 264.0,1.75 265.0,1.75 266.0,1.75 267.0,1.75 268.0,1.75 269.0,1.75 270.0,1.75 271.0,1.75 272.0,1.75 273.0,1.75 274.0,1.75 275.0,1.75 276.0,1.75 277.0,1.75 278.0,1.75 279.0,1.75 280.0,1.75 281.0,1.75 282.0,1.75 283.0,1.75 284.0,1.75 285.0,1.75 286.0,1.75 287.0,1.75 288.0,1.75 289.0,1.75 290.0,1.75 291.0,1.75 292.0,1.75 293.0,1.75 294.0,1.75 295.0,1.75 296.0,1.75 297.0,1.75 298.0,1.75 299.0,1.75 300.0,1.75 301.0,1.75 302.0,1.75 303.0,1.75 304.0,1.75 305.0,1.75 306.0,1.75 307.0,1.75 308.0,1.75 309.0,1.75 310.0,1.75 311.0,1.75 312.0,1.75 313.0,1.75 314.0,1.75 315.0,1.75 316.0,1.75 317.0,1.75 318.0,1.75 319.0,1.75 320.0,1.75 321.0,1.75 322.0,1.75 323.0,1.75 324.0,1.75 325.0,1.75 326.0,1.75 327.0,1.75 328.0,1.75 329.0,1.75 330.0,1.75 331.0,1.75 332.0,1.75 333.0,1.75 334.0,1.75 335.0,1.75 336.0,1.75 337.0,1.75 338.0,1.75 339.0,1.75 340.0,1.75 341.0,1.75 342.0,1.75 343.0,1.75 344.0,1.75 345.0,1.75 346.0,1.75 347.0,1.75 348.0,1.75 349.0,1.75 350.0,1.75 351.0,1.75 352.0,1.75 353.0,1.75 354.0,1.75 355.0,1.75 356.0,1.75 357.0,1.75 358.0,1.75 359.0,1.75 360.0,1.75 361.0,1.75 362.0,1.75 363.0,1.75 364.0,1.75 365.0,1.75 366.0,1.75 367.0,1.75 368.0,1.75 369.0,1.75 370.0,1.75 371.0,1.75 372.0,1.75 373.0,1.75 374.0,1.75 375.0,1.75 376.0,1.75 377.0,1.75 378.0,1.75 379.0,1.75 380.0,1.75 381.0,1.75 382.0,1.75 383.0,1.75 384.0,1.75 385.0,1.75 386.0,1.75 387.0,1.75 388.0,1.75 389.0,1.75 390.0,1.75 391.0,1.75 392.0,1.75 393.0,1.75 394.0,1.75 395.0,1.75 396.0,1.75 397.0,1.75 398.0,1.75 399.0,1.75 400.0,1.75 401.0,1.75 402.0,1.75 403.0,1.75 404.0,1.75 405.0,1.75 406.0,1.75 407.0,1.75 408.0,1.75 409.0,1.75 410.0,1.75 411.0,1.75 412.0,1.75 413.0,1.75 414.0,1.75 415.0,1.75 416.0,1.75 417.0,1.75 418.0,1.75 419.0,1.75 420.0,1.75 421.0,1.75 422.0,1.75 423.0,1.75 424.0,1.75 425.0,1.75 426.0,1.75 427.0,1.75 428.0,1.75 429.0,1.75 430.0,1.75 431.0,1.75 432.0,1.75 433.0,1.75 434.0,1.75 435.0,1.75 436.0,1.75 437.0,1.75 438.0,1.75 439.0,1.75 440.0,1.75 441.0,1.75 442.0,1.75 443.0,1.75 444.0,1.75 445.0,1.75 446.0,1.75 447.0,1.75 448.0,1.75 449.0,1.75 450.0,1.75 451.0,1.75 452.0,1.75 453.0,1.75 454.0,1.75 455.0,1.75 456.0,1.75 457.0,1.75 458.0,1.75 459.0,1.75 460.0,1.75 461.0,1.75 462.0,1.75 463.0,1.75 464.0,1.75 465.0,1.75 466.0,1.75 467.0,1.75 468.0,1.75 469.0,1.75 470.0,1.75 471.0,1.75 472.0,1.75 473.0,1.75 474.0,1.75 475.0,1.75 476.0,1.75 477.0,1.75 478.0,1.75 479.0,1.75 480.0,1.75 481.0,1.75 482.0,1.75 483.0,1.75 484.0,1.75 485.0,1.75 486.0,1.75 487.0,1.75 488.0,1.75 489.0,1.75 490.0,1.75 491.0,1.75 492.0,1.75 493.0,1.75 494.0,1.75 495.0,1.75 496.0,1.75 497.0,1.75 498.0,1.75 499.0,1.75 500.0,1.75 501.0,1.75 502.0,1.75 503.0,1.75 504.0,1.75 505.0,1.75 506.0,1.75 507.0,1.75 508.0,1.75 509.0,1.75 510.0,1.75 511.0,1.75 512.0,1.75 513.0,1.75 514.0,1.75 515.0,1.75 516.0,1.75 517.0,1.75 518.0,1.75 519.0,1.75 520.0,1.75 521.0,1.75 522.0,1.75 523.0,1.75 524.0,1.75 525.0,1.75 526.0,1.75 527.0,1.75 528.0,1.75 529.0,1.75 530.0,1.75 531.0,1.75 532.0,1.75 533.0,1.75 534.0,1.75 535.0,1.75 536.0,1.75 537.0,1.75 538.0,1.75 539.0,1.75 540.0,1.75 541.0,1.75 542.0,1.75 543.0,1.75 544.0,1.75 545.0,1.75 546.0,1.75 547.0,1.75 548.0,1.75 549.0,1.75 550.0,1.75 551.0,1.75 552.0,1.75 553.0,1.75 554.0,1.75 555.0,1.75 556.0,1.75 557.0,1.75 558.0,1.75 559.0,1.75 560.0,1.75 561.0,1.75 562.0,1.75 563.0,1.75 564.0,1.75 565.0,1.75 566.0,1.75 567.0,1.75 568.0,1.75 569.0,1.75 570.0,1.75 571.0,1.75 572.0,1.75 573.0,1.75 574.0,1.75 575.0,1.75 576.0,1.75 577.0,1.75 578.0,1.75 579.0,1.75 580.0,1.75 581.0,1.75 582.0,1.75 583.0,1.75 584.0,1.75 585.0,1.75 586.0,1.75 587.0,1.75 588.0,1.75 589.0,1.75 590.0,1.75 591.0,1.75 592.0,1.75 593.0,1.75 594.0,1.75 595.0,1.75 596.0,1.75 597.0,1.75 598.0,1.75 599.0,1.75 600.0,1.75 601.0,1.75 602.0,1.75 603.0,1.75 604.0,1.75 605.0,1.75 606.0,1.75 607.0,1.75 608.0,1.75 609.0,1.75 610.0,1.75 611.0,1.75 612.0,1.75 613.0,1.75 614.0,1.75 615.0,1.75 616.0,1.75 617.0,1.75 618.0,1.75 619.0,1.75 620.0,1.75 621.0,1.75 622.0,1.75 623.0,1.75 624.0,1.75 625.0,1.75 626.0,1.75 627.0,1.75 628.0,1.75 629.0,1.75 630.0,1.75 631.0,1.75 632.0,1.75 633.0,1.75 634.0,1.75 635.0,1.75 636.0,1.75 637.0,1.75 638.0,1.75 639.0,1.75 640.0,1.75 641.0,1.75 642.0,1.75 643.0,1.75 644.0,1.75 645.0,1.75 646.0,1.75 647.0,1.75 648.0,1.75 649.0,1.75 650.0,1.75 651.0,1.75 652.0,1.75 653.0,1.75 654.0,1.75 655.0,1.75 656.0,1.75 657.0,1.75 658.0,1.75 659.0,1.75 660.0,1.75 661.0,1.75 662.0,1.75 663.0,1.75 664.0,1.75 665.0,1.75 666.0,1.75 667.0,1.75 668.0,1.75 669.0,1.75 670.0,1.75 671.0,1.75 672.0,1.75 673.0,1.75 674.0,1.75 675.0,1.75 676.0,1.75 677.0,1.75 678.0,1.75 679.0,1.75 680.0,1.75 681.0,1.75 682.0,1.75 683.0,1.75 684.0,1.75 685.0,1.75 686.0,1.75 687.0,1.75 688.0,1.75 689.0,1.75 690.0,1.75 691.0,1.75 692.0,1.75 693.0,1.75 694.0,1.75 695.0,1.75 696.0,1.75 697.0,1.75 698.0,1.75 699.0,1.75 700.0,1.75 701.0,1.75 702.0,1.75 703.0,1.75 704.0,1.75 705.0,1.75 706.0,1.75 707.0,1.75 708.0,1.75 709.0,1.75 710.0,1.75 711.0,1.75 712.0,1.75 713.0,1.75 714.0,1.75 715.0,1.75 716.0,1.75 717.0,1.75 718.0,1.75 719.0,1.75 720.0,1.75 721.0,1.75 722.0,1.75 723.0,1.75 724.0,1.75 725.0,1.75 726.0,1.75 727.0,1.75 728.0,1.75 729.0,1.75 730.0,1.75 731.0,1.75 732.0,1.75 733.0,1.75 734.0,1.75 735.0,1.75 736.0,1.75 737.0,1.75 738.0,1.75 739.0,1.75 740.0,1.75 741.0,1.75 742.0,1.75 743.0,1.75 744.0,1.75 745.0,1.75 746.0,1.75 747.0,1.75 748.0,1.75 749.0,1.75 750.0,1.75" speed="36.11111111111111" width="3.5"/>
	</edge>
</edges>
