<?xml version="1.0" encoding="UTF-8"?>

<!-- generated on Fri Dec 18 15:41:32 2020 by Eclipse SUMO netconvert Version 1.8.0
<configuration xmlns:xsi="http://www.w3.org/2001/XMLSchema-instance" xsi:noNamespaceSchemaLocation="http://sumo.dlr.de/xsd/netconvertConfiguration.xsd">

    <input>
        <node-files value="./converted_scenarios/hand-crafted/ZAM_ACC-1_2_I-1-1/nodes.net.xml"/>
        <edge-files value="./converted_scenarios/hand-crafted/ZAM_ACC-1_2_I-1-1/edges.net.xml"/>
        <connection-files value="./converted_scenarios/hand-crafted/ZAM_ACC-1_2_I-1-1/_connections.net.xml"/>
        <tllogic-files value="./converted_scenarios/hand-crafted/ZAM_ACC-1_2_I-1-1/_tll.net.xml"/>
    </input>

    <output>
        <output-file value="./converted_scenarios/hand-crafted/ZAM_ACC-1_2_I-1-1/ZAM_ACC-1_2_I-1-1.net.xml"/>
    </output>

    <processing>
        <plain.extend-edge-shape value="true"/>
        <geometry.remove.keep-edges.explicit value="true"/>
        <geometry.avoid-overlap value="true"/>
        <offset.disable-normalization value="true"/>
    </processing>

    <junctions>
        <no-turnarounds value="true"/>
        <junctions.internal-link-detail value="20"/>
    </junctions>

    <report>
        <aggregate-warnings value="5"/>
    </report>

    <random_number>
        <seed value="1234"/>
    </random_number>

</configuration>
-->

<net version="1.6" junctionCornerDetail="5" junctionLinkDetail="20" limitTurnSpeed="5.50" xmlns:xsi="http://www.w3.org/2001/XMLSchema-instance" xsi:noNamespaceSchemaLocation="http://sumo.dlr.de/xsd/net_file.xsd">

    <location netOffset="0.00,0.00" convBoundary="-430.00,1.75,750.00,1.75" origBoundary="-430.00,1.75,750.00,1.75" projParameter="!"/>

    <edge id="2" from="1" to="2" priority="1" spreadType="center" length="1180.00">
        <lane id="2_0" index="0" disallow="rail_fast" speed="36.11" length="1180.00" width="3.50" customShape="1" shape="-430.00,1.75 -429.00,1.75 -428.00,1.75 -427.00,1.75 -426.00,1.75 -425.00,1.75 -424.00,1.75 -423.00,1.75 -422.00,1.75 -421.00,1.75 -420.00,1.75 -419.00,1.75 -418.00,1.75 -417.00,1.75 -416.00,1.75 -415.00,1.75 -414.00,1.75 -413.00,1.75 -412.00,1.75 -411.00,1.75 -410.00,1.75 -409.00,1.75 -408.00,1.75 -407.00,1.75 -406.00,1.75 -405.00,1.75 -404.00,1.75 -403.00,1.75 -402.00,1.75 -401.00,1.75 -400.00,1.75 -399.00,1.75 -398.00,1.75 -397.00,1.75 -396.00,1.75 -395.00,1.75 -394.00,1.75 -393.00,1.75 -392.00,1.75 -391.00,1.75 -390.00,1.75 -389.00,1.75 -388.00,1.75 -387.00,1.75 -386.00,1.75 -385.00,1.75 -384.00,1.75 -383.00,1.75 -382.00,1.75 -381.00,1.75 -380.00,1.75 -379.00,1.75 -378.00,1.75 -377.00,1.75 -376.00,1.75 -375.00,1.75 -374.00,1.75 -373.00,1.75 -372.00,1.75 -371.00,1.75 -370.00,1.75 -369.00,1.75 -368.00,1.75 -367.00,1.75 -366.00,1.75 -365.00,1.75 -364.00,1.75 -363.00,1.75 -362.00,1.75 -361.00,1.75 -360.00,1.75 -359.00,1.75 -358.00,1.75 -357.00,1.75 -356.00,1.75 -355.00,1.75 -354.00,1.75 -353.00,1.75 -352.00,1.75 -351.00,1.75 -350.00,1.75 -349.00,1.75 -348.00,1.75 -347.00,1.75 -346.00,1.75 -345.00,1.75 -344.00,1.75 -343.00,1.75 -342.00,1.75 -341.00,1.75 -340.00,1.75 -339.00,1.75 -338.00,1.75 -337.00,1.75 -336.00,1.75 -335.00,1.75 -334.00,1.75 -333.00,1.75 -332.00,1.75 -331.00,1.75 -330.00,1.75 -329.00,1.75 -328.00,1.75 -327.00,1.75 -326.00,1.75 -325.00,1.75 -324.00,1.75 -323.00,1.75 -322.00,1.75 -321.00,1.75 -320.00,1.75 -319.00,1.75 -318.00,1.75 -317.00,1.75 -316.00,1.75 -315.00,1.75 -314.00,1.75 -313.00,1.75 -312.00,1.75 -311.00,1.75 -310.00,1.75 -309.00,1.75 -308.00,1.75 -307.00,1.75 -306.00,1.75 -305.00,1.75 -304.00,1.75 -303.00,1.75 -302.00,1.75 -301.00,1.75 -300.00,1.75 -299.00,1.75 -298.00,1.75 -297.00,1.75 -296.00,1.75 -295.00,1.75 -294.00,1.75 -293.00,1.75 -292.00,1.75 -291.00,1.75 -290.00,1.75 -289.00,1.75 -288.00,1.75 -287.00,1.75 -286.00,1.75 -285.00,1.75 -284.00,1.75 -283.00,1.75 -282.00,1.75 -281.00,1.75 -280.00,1.75 -279.00,1.75 -278.00,1.75 -277.00,1.75 -276.00,1.75 -275.00,1.75 -274.00,1.75 -273.00,1.75 -272.00,1.75 -271.00,1.75 -270.00,1.75 -269.00,1.75 -268.00,1.75 -267.00,1.75 -266.00,1.75 -265.00,1.75 -264.00,1.75 -263.00,1.75 -262.00,1.75 -261.00,1.75 -260.00,1.75 -259.00,1.75 -258.00,1.75 -257.00,1.75 -256.00,1.75 -255.00,1.75 -254.00,1.75 -253.00,1.75 -252.00,1.75 -251.00,1.75 -250.00,1.75 -249.00,1.75 -248.00,1.75 -247.00,1.75 -246.00,1.75 -245.00,1.75 -244.00,1.75 -243.00,1.75 -242.00,1.75 -241.00,1.75 -240.00,1.75 -239.00,1.75 -238.00,1.75 -237.00,1.75 -236.00,1.75 -235.00,1.75 -234.00,1.75 -233.00,1.75 -232.00,1.75 -231.00,1.75 -230.00,1.75 -229.00,1.75 -228.00,1.75 -227.00,1.75 -226.00,1.75 -225.00,1.75 -224.00,1.75 -223.00,1.75 -222.00,1.75 -221.00,1.75 -220.00,1.75 -219.00,1.75 -218.00,1.75 -217.00,1.75 -216.00,1.75 -215.00,1.75 -214.00,1.75 -213.00,1.75 -212.00,1.75 -211.00,1.75 -210.00,1.75 -209.00,1.75 -208.00,1.75 -207.00,1.75 -206.00,1.75 -205.00,1.75 -204.00,1.75 -203.00,1.75 -202.00,1.75 -201.00,1.75 -200.00,1.75 -199.00,1.75 -198.00,1.75 -197.00,1.75 -196.00,1.75 -195.00,1.75 -194.00,1.75 -193.00,1.75 -192.00,1.75 -191.00,1.75 -190.00,1.75 -189.00,1.75 -188.00,1.75 -187.00,1.75 -186.00,1.75 -185.00,1.75 -184.00,1.75 -183.00,1.75 -182.00,1.75 -181.00,1.75 -180.00,1.75 -179.00,1.75 -178.00,1.75 -177.00,1.75 -176.00,1.75 -175.00,1.75 -174.00,1.75 -173.00,1.75 -172.00,1.75 -171.00,1.75 -170.00,1.75 -169.00,1.75 -168.00,1.75 -167.00,1.75 -166.00,1.75 -165.00,1.75 -164.00,1.75 -163.00,1.75 -162.00,1.75 -161.00,1.75 -160.00,1.75 -159.00,1.75 -158.00,1.75 -157.00,1.75 -156.00,1.75 -155.00,1.75 -154.00,1.75 -153.00,1.75 -152.00,1.75 -151.00,1.75 -150.00,1.75 -149.00,1.75 -148.00,1.75 -147.00,1.75 -146.00,1.75 -145.00,1.75 -144.00,1.75 -143.00,1.75 -142.00,1.75 -141.00,1.75 -140.00,1.75 -139.00,1.75 -138.00,1.75 -137.00,1.75 -136.00,1.75 -135.00,1.75 -134.00,1.75 -133.00,1.75 -132.00,1.75 -131.00,1.75 -130.00,1.75 -129.00,1.75 -128.00,1.75 -127.00,1.75 -126.00,1.75 -125.00,1.75 -124.00,1.75 -123.00,1.75 -122.00,1.75 -121.00,1.75 -120.00,1.75 -119.00,1.75 -118.00,1.75 -117.00,1.75 -116.00,1.75 -115.00,1.75 -114.00,1.75 -113.00,1.75 -112.00,1.75 -111.00,1.75 -110.00,1.75 -109.00,1.75 -108.00,1.75 -107.00,1.75 -106.00,1.75 -105.00,1.75 -104.00,1.75 -103.00,1.75 -102.00,1.75 -101.00,1.75 -100.00,1.75 -99.00,1.75 -98.00,1.75 -97.00,1.75 -96.00,1.75 -95.00,1.75 -94.00,1.75 -93.00,1.75 -92.00,1.75 -91.00,1.75 -90.00,1.75 -89.00,1.75 -88.00,1.75 -87.00,1.75 -86.00,1.75 -85.00,1.75 -84.00,1.75 -83.00,1.75 -82.00,1.75 -81.00,1.75 -80.00,1.75 -79.00,1.75 -78.00,1.75 -77.00,1.75 -76.00,1.75 -75.00,1.75 -74.00,1.75 -73.00,1.75 -72.00,1.75 -71.00,1.75 -70.00,1.75 -69.00,1.75 -68.00,1.75 -67.00,1.75 -66.00,1.75 -65.00,1.75 -64.00,1.75 -63.00,1.75 -62.00,1.75 -61.00,1.75 -60.00,1.75 -59.00,1.75 -58.00,1.75 -57.00,1.75 -56.00,1.75 -55.00,1.75 -54.00,1.75 -53.00,1.75 -52.00,1.75 -51.00,1.75 -50.00,1.75 -49.00,1.75 -48.00,1.75 -47.00,1.75 -46.00,1.75 -45.00,1.75 -44.00,1.75 -43.00,1.75 -42.00,1.75 -41.00,1.75 -40.00,1.75 -39.00,1.75 -38.00,1.75 -37.00,1.75 -36.00,1.75 -35.00,1.75 -34.00,1.75 -33.00,1.75 -32.00,1.75 -31.00,1.75 -30.00,1.75 -29.00,1.75 -28.00,1.75 -27.00,1.75 -26.00,1.75 -25.00,1.75 -24.00,1.75 -23.00,1.75 -22.00,1.75 -21.00,1.75 -20.00,1.75 -19.00,1.75 -18.00,1.75 -17.00,1.75 -16.00,1.75 -15.00,1.75 -14.00,1.75 -13.00,1.75 -12.00,1.75 -11.00,1.75 -10.00,1.75 -9.00,1.75 -8.00,1.75 -7.00,1.75 -6.00,1.75 -5.00,1.75 -4.00,1.75 -3.00,1.75 -2.00,1.75 -1.00,1.75 0.00,1.75 1.00,1.75 2.00,1.75 3.00,1.75 4.00,1.75 5.00,1.75 6.00,1.75 7.00,1.75 8.00,1.75 9.00,1.75 10.00,1.75 11.00,1.75 12.00,1.75 13.00,1.75 14.00,1.75 15.00,1.75 16.00,1.75 17.00,1.75 18.00,1.75 19.00,1.75 20.00,1.75 21.00,1.75 22.00,1.75 23.00,1.75 24.00,1.75 25.00,1.75 26.00,1.75 27.00,1.75 28.00,1.75 29.00,1.75 30.00,1.75 31.00,1.75 32.00,1.75 33.00,1.75 34.00,1.75 35.00,1.75 36.00,1.75 37.00,1.75 38.00,1.75 39.00,1.75 40.00,1.75 41.00,1.75 42.00,1.75 43.00,1.75 44.00,1.75 45.00,1.75 46.00,1.75 47.00,1.75 48.00,1.75 49.00,1.75 50.00,1.75 51.00,1.75 52.00,1.75 53.00,1.75 54.00,1.75 55.00,1.75 56.00,1.75 57.00,1.75 58.00,1.75 59.00,1.75 60.00,1.75 61.00,1.75 62.00,1.75 63.00,1.75 64.00,1.75 65.00,1.75 66.00,1.75 67.00,1.75 68.00,1.75 69.00,1.75 70.00,1.75 71.00,1.75 72.00,1.75 73.00,1.75 74.00,1.75 75.00,1.75 76.00,1.75 77.00,1.75 78.00,1.75 79.00,1.75 80.00,1.75 81.00,1.75 82.00,1.75 83.00,1.75 84.00,1.75 85.00,1.75 86.00,1.75 87.00,1.75 88.00,1.75 89.00,1.75 90.00,1.75 91.00,1.75 92.00,1.75 93.00,1.75 94.00,1.75 95.00,1.75 96.00,1.75 97.00,1.75 98.00,1.75 99.00,1.75 100.00,1.75 101.00,1.75 102.00,1.75 103.00,1.75 104.00,1.75 105.00,1.75 106.00,1.75 107.00,1.75 108.00,1.75 109.00,1.75 110.00,1.75 111.00,1.75 112.00,1.75 113.00,1.75 114.00,1.75 115.00,1.75 116.00,1.75 117.00,1.75 118.00,1.75 119.00,1.75 120.00,1.75 121.00,1.75 122.00,1.75 123.00,1.75 124.00,1.75 125.00,1.75 126.00,1.75 127.00,1.75 128.00,1.75 129.00,1.75 130.00,1.75 131.00,1.75 132.00,1.75 133.00,1.75 134.00,1.75 135.00,1.75 136.00,1.75 137.00,1.75 138.00,1.75 139.00,1.75 140.00,1.75 141.00,1.75 142.00,1.75 143.00,1.75 144.00,1.75 145.00,1.75 146.00,1.75 147.00,1.75 148.00,1.75 149.00,1.75 150.00,1.75 151.00,1.75 152.00,1.75 153.00,1.75 154.00,1.75 155.00,1.75 156.00,1.75 157.00,1.75 158.00,1.75 159.00,1.75 160.00,1.75 161.00,1.75 162.00,1.75 163.00,1.75 164.00,1.75 165.00,1.75 166.00,1.75 167.00,1.75 168.00,1.75 169.00,1.75 170.00,1.75 171.00,1.75 172.00,1.75 173.00,1.75 174.00,1.75 175.00,1.75 176.00,1.75 177.00,1.75 178.00,1.75 179.00,1.75 180.00,1.75 181.00,1.75 182.00,1.75 183.00,1.75 184.00,1.75 185.00,1.75 186.00,1.75 187.00,1.75 188.00,1.75 189.00,1.75 190.00,1.75 191.00,1.75 192.00,1.75 193.00,1.75 194.00,1.75 195.00,1.75 196.00,1.75 197.00,1.75 198.00,1.75 199.00,1.75 200.00,1.75 201.00,1.75 202.00,1.75 203.00,1.75 204.00,1.75 205.00,1.75 206.00,1.75 207.00,1.75 208.00,1.75 209.00,1.75 210.00,1.75 211.00,1.75 212.00,1.75 213.00,1.75 214.00,1.75 215.00,1.75 216.00,1.75 217.00,1.75 218.00,1.75 219.00,1.75 220.00,1.75 221.00,1.75 222.00,1.75 223.00,1.75 224.00,1.75 225.00,1.75 226.00,1.75 227.00,1.75 228.00,1.75 229.00,1.75 230.00,1.75 231.00,1.75 232.00,1.75 233.00,1.75 234.00,1.75 235.00,1.75 236.00,1.75 237.00,1.75 238.00,1.75 239.00,1.75 240.00,1.75 241.00,1.75 242.00,1.75 243.00,1.75 244.00,1.75 245.00,1.75 246.00,1.75 247.00,1.75 248.00,1.75 249.00,1.75 250.00,1.75 251.00,1.75 252.00,1.75 253.00,1.75 254.00,1.75 255.00,1.75 256.00,1.75 257.00,1.75 258.00,1.75 259.00,1.75 260.00,1.75 261.00,1.75 262.00,1.75 263.00,1.75 264.00,1.75 265.00,1.75 266.00,1.75 267.00,1.75 268.00,1.75 269.00,1.75 270.00,1.75 271.00,1.75 272.00,1.75 273.00,1.75 274.00,1.75 275.00,1.75 276.00,1.75 277.00,1.75 278.00,1.75 279.00,1.75 280.00,1.75 281.00,1.75 282.00,1.75 283.00,1.75 284.00,1.75 285.00,1.75 286.00,1.75 287.00,1.75 288.00,1.75 289.00,1.75 290.00,1.75 291.00,1.75 292.00,1.75 293.00,1.75 294.00,1.75 295.00,1.75 296.00,1.75 297.00,1.75 298.00,1.75 299.00,1.75 300.00,1.75 301.00,1.75 302.00,1.75 303.00,1.75 304.00,1.75 305.00,1.75 306.00,1.75 307.00,1.75 308.00,1.75 309.00,1.75 310.00,1.75 311.00,1.75 312.00,1.75 313.00,1.75 314.00,1.75 315.00,1.75 316.00,1.75 317.00,1.75 318.00,1.75 319.00,1.75 320.00,1.75 321.00,1.75 322.00,1.75 323.00,1.75 324.00,1.75 325.00,1.75 326.00,1.75 327.00,1.75 328.00,1.75 329.00,1.75 330.00,1.75 331.00,1.75 332.00,1.75 333.00,1.75 334.00,1.75 335.00,1.75 336.00,1.75 337.00,1.75 338.00,1.75 339.00,1.75 340.00,1.75 341.00,1.75 342.00,1.75 343.00,1.75 344.00,1.75 345.00,1.75 346.00,1.75 347.00,1.75 348.00,1.75 349.00,1.75 350.00,1.75 351.00,1.75 352.00,1.75 353.00,1.75 354.00,1.75 355.00,1.75 356.00,1.75 357.00,1.75 358.00,1.75 359.00,1.75 360.00,1.75 361.00,1.75 362.00,1.75 363.00,1.75 364.00,1.75 365.00,1.75 366.00,1.75 367.00,1.75 368.00,1.75 369.00,1.75 370.00,1.75 371.00,1.75 372.00,1.75 373.00,1.75 374.00,1.75 375.00,1.75 376.00,1.75 377.00,1.75 378.00,1.75 379.00,1.75 380.00,1.75 381.00,1.75 382.00,1.75 383.00,1.75 384.00,1.75 385.00,1.75 386.00,1.75 387.00,1.75 388.00,1.75 389.00,1.75 390.00,1.75 391.00,1.75 392.00,1.75 393.00,1.75 394.00,1.75 395.00,1.75 396.00,1.75 397.00,1.75 398.00,1.75 399.00,1.75 400.00,1.75 401.00,1.75 402.00,1.75 403.00,1.75 404.00,1.75 405.00,1.75 406.00,1.75 407.00,1.75 408.00,1.75 409.00,1.75 410.00,1.75 411.00,1.75 412.00,1.75 413.00,1.75 414.00,1.75 415.00,1.75 416.00,1.75 417.00,1.75 418.00,1.75 419.00,1.75 420.00,1.75 421.00,1.75 422.00,1.75 423.00,1.75 424.00,1.75 425.00,1.75 426.00,1.75 427.00,1.75 428.00,1.75 429.00,1.75 430.00,1.75 431.00,1.75 432.00,1.75 433.00,1.75 434.00,1.75 435.00,1.75 436.00,1.75 437.00,1.75 438.00,1.75 439.00,1.75 440.00,1.75 441.00,1.75 442.00,1.75 443.00,1.75 444.00,1.75 445.00,1.75 446.00,1.75 447.00,1.75 448.00,1.75 449.00,1.75 450.00,1.75 451.00,1.75 452.00,1.75 453.00,1.75 454.00,1.75 455.00,1.75 456.00,1.75 457.00,1.75 458.00,1.75 459.00,1.75 460.00,1.75 461.00,1.75 462.00,1.75 463.00,1.75 464.00,1.75 465.00,1.75 466.00,1.75 467.00,1.75 468.00,1.75 469.00,1.75 470.00,1.75 471.00,1.75 472.00,1.75 473.00,1.75 474.00,1.75 475.00,1.75 476.00,1.75 477.00,1.75 478.00,1.75 479.00,1.75 480.00,1.75 481.00,1.75 482.00,1.75 483.00,1.75 484.00,1.75 485.00,1.75 486.00,1.75 487.00,1.75 488.00,1.75 489.00,1.75 490.00,1.75 491.00,1.75 492.00,1.75 493.00,1.75 494.00,1.75 495.00,1.75 496.00,1.75 497.00,1.75 498.00,1.75 499.00,1.75 500.00,1.75 501.00,1.75 502.00,1.75 503.00,1.75 504.00,1.75 505.00,1.75 506.00,1.75 507.00,1.75 508.00,1.75 509.00,1.75 510.00,1.75 511.00,1.75 512.00,1.75 513.00,1.75 514.00,1.75 515.00,1.75 516.00,1.75 517.00,1.75 518.00,1.75 519.00,1.75 520.00,1.75 521.00,1.75 522.00,1.75 523.00,1.75 524.00,1.75 525.00,1.75 526.00,1.75 527.00,1.75 528.00,1.75 529.00,1.75 530.00,1.75 531.00,1.75 532.00,1.75 533.00,1.75 534.00,1.75 535.00,1.75 536.00,1.75 537.00,1.75 538.00,1.75 539.00,1.75 540.00,1.75 541.00,1.75 542.00,1.75 543.00,1.75 544.00,1.75 545.00,1.75 546.00,1.75 547.00,1.75 548.00,1.75 549.00,1.75 550.00,1.75 551.00,1.75 552.00,1.75 553.00,1.75 554.00,1.75 555.00,1.75 556.00,1.75 557.00,1.75 558.00,1.75 559.00,1.75 560.00,1.75 561.00,1.75 562.00,1.75 563.00,1.75 564.00,1.75 565.00,1.75 566.00,1.75 567.00,1.75 568.00,1.75 569.00,1.75 570.00,1.75 571.00,1.75 572.00,1.75 573.00,1.75 574.00,1.75 575.00,1.75 576.00,1.75 577.00,1.75 578.00,1.75 579.00,1.75 580.00,1.75 581.00,1.75 582.00,1.75 583.00,1.75 584.00,1.75 585.00,1.75 586.00,1.75 587.00,1.75 588.00,1.75 589.00,1.75 590.00,1.75 591.00,1.75 592.00,1.75 593.00,1.75 594.00,1.75 595.00,1.75 596.00,1.75 597.00,1.75 598.00,1.75 599.00,1.75 600.00,1.75 601.00,1.75 602.00,1.75 603.00,1.75 604.00,1.75 605.00,1.75 606.00,1.75 607.00,1.75 608.00,1.75 609.00,1.75 610.00,1.75 611.00,1.75 612.00,1.75 613.00,1.75 614.00,1.75 615.00,1.75 616.00,1.75 617.00,1.75 618.00,1.75 619.00,1.75 620.00,1.75 621.00,1.75 622.00,1.75 623.00,1.75 624.00,1.75 625.00,1.75 626.00,1.75 627.00,1.75 628.00,1.75 629.00,1.75 630.00,1.75 631.00,1.75 632.00,1.75 633.00,1.75 634.00,1.75 635.00,1.75 636.00,1.75 637.00,1.75 638.00,1.75 639.00,1.75 640.00,1.75 641.00,1.75 642.00,1.75 643.00,1.75 644.00,1.75 645.00,1.75 646.00,1.75 647.00,1.75 648.00,1.75 649.00,1.75 650.00,1.75 651.00,1.75 652.00,1.75 653.00,1.75 654.00,1.75 655.00,1.75 656.00,1.75 657.00,1.75 658.00,1.75 659.00,1.75 660.00,1.75 661.00,1.75 662.00,1.75 663.00,1.75 664.00,1.75 665.00,1.75 666.00,1.75 667.00,1.75 668.00,1.75 669.00,1.75 670.00,1.75 671.00,1.75 672.00,1.75 673.00,1.75 674.00,1.75 675.00,1.75 676.00,1.75 677.00,1.75 678.00,1.75 679.00,1.75 680.00,1.75 681.00,1.75 682.00,1.75 683.00,1.75 684.00,1.75 685.00,1.75 686.00,1.75 687.00,1.75 688.00,1.75 689.00,1.75 690.00,1.75 691.00,1.75 692.00,1.75 693.00,1.75 694.00,1.75 695.00,1.75 696.00,1.75 697.00,1.75 698.00,1.75 699.00,1.75 700.00,1.75 701.00,1.75 702.00,1.75 703.00,1.75 704.00,1.75 705.00,1.75 706.00,1.75 707.00,1.75 708.00,1.75 709.00,1.75 710.00,1.75 711.00,1.75 712.00,1.75 713.00,1.75 714.00,1.75 715.00,1.75 716.00,1.75 717.00,1.75 718.00,1.75 719.00,1.75 720.00,1.75 721.00,1.75 722.00,1.75 723.00,1.75 724.00,1.75 725.00,1.75 726.00,1.75 727.00,1.75 728.00,1.75 729.00,1.75 730.00,1.75 731.00,1.75 732.00,1.75 733.00,1.75 734.00,1.75 735.00,1.75 736.00,1.75 737.00,1.75 738.00,1.75 739.00,1.75 740.00,1.75 741.00,1.75 742.00,1.75 743.00,1.75 744.00,1.75 745.00,1.75 746.00,1.75 747.00,1.75 748.00,1.75 749.00,1.75 750.00,1.75"/>
    </edge>

    <junction id="1" type="dead_end" x="-430.00" y="1.75" incLanes="" intLanes="" shape="-430.00,3.50 -430.00,0.00"/>
    <junction id="2" type="dead_end" x="750.00" y="1.75" incLanes="2_0" intLanes="" shape="750.00,0.00 750.00,3.50"/>

</net>
