<routes>
	<vehicle depart="0.1" departLane="0" departPos="442.4922" departSpeed="19.4827" id="42" type="passenger">
		<route edges="2"/>
	</vehicle>
</routes>
