<routes>
	<vehicle depart="0.1" departLane="0" departPos="19.772622647968138" departSpeed="6.6650439" id="332" type="bicycle">
		<route edges=":50_2 76051 76794"/>
	</vehicle>
	<vehicle depart="0.1" departLane="0" departPos="35.662839306953984" departSpeed="3.853285" id="315" type="passenger">
		<route edges=":50_0 75817"/>
	</vehicle>
	<vehicle depart="0.1" departLane="0" departPos="25.77300629192525" departSpeed="2.7588382" id="320" type="passenger">
		<route edges=":50_0 75817"/>
	</vehicle>
	<vehicle depart="0.1" departLane="0" departPos="16.007938894875405" departSpeed="3.4011562" id="325" type="passenger">
		<route edges="76050 75817"/>
	</vehicle>
	<vehicle depart="0.1" departLane="0" departPos="28.366187234193603" departSpeed="6.2214587" id="329" type="passenger">
		<route edges="77001 76050 75817"/>
	</vehicle>
	<vehicle depart="0.1" departLane="0" departPos="3.612273543636423" departSpeed="2.5596457" id="324" type="motorcycle">
		<route edges=":50_0 75817"/>
	</vehicle>
	<vehicle depart="0.1" departLane="0" departPos="16.162480121497822" departSpeed="2.1691085" id="322" type="truck">
		<route edges=":50_0 75817"/>
	</vehicle>
</routes>
