<routes>
	<vehicle depart="0.1" departLane="0" departPos="27.193558029447168" departSpeed="8.7072497" id="341" type="bus">
		<route edges=":44_4 21535 21634"/>
	</vehicle>
	<vehicle depart="0.1" departLane="0" departPos="9.436962860642037" departSpeed="2.5812037" id="36" type="passenger">
		<route edges=":42_3 21634"/>
	</vehicle>
	<vehicle depart="0.1" departLane="0" departPos="16.11593142019141" departSpeed="7.3627807" id="316" type="passenger">
		<route edges="21533 21634"/>
	</vehicle>
	<vehicle depart="0.1" departLane="0" departPos="6.98726365900177" departSpeed="9.5879955" id="331" type="passenger">
		<route edges=":42_5 21536"/>
	</vehicle>
	<vehicle depart="0.1" departLane="0" departPos="25.862049715365057" departSpeed="13.005144" id="332" type="passenger">
		<route edges="21562 21533"/>
	</vehicle>
	<vehicle depart="0.1" departLane="0" departPos="14.556307497818638" departSpeed="0.0" id="335" type="passenger">
		<route edges="21633 21532"/>
	</vehicle>
	<vehicle depart="0.1" departLane="0" departPos="6.844246679523478" departSpeed="0.22433207" id="350" type="passenger">
		<route edges="21633 21532"/>
	</vehicle>
</routes>
