<routes>
	<vehicle depart="0.1" departLane="0" departPos="7.700226349275381" departSpeed="2.0187477" id="313" type="passenger">
		<route edges="38166 37654"/>
	</vehicle>
	<vehicle depart="0.1" departLane="0" departPos="29.69969505085888" departSpeed="8.7969092" id="322" type="passenger">
		<route edges=":50_0 37650 37647"/>
	</vehicle>
	<vehicle depart="0.1" departLane="0" departPos="19.712092820022256" departSpeed="0.4987735" id="326" type="passenger">
		<route edges=":50_1 38167"/>
	</vehicle>
	<vehicle depart="0.1" departLane="0" departPos="12.652864880178237" departSpeed="9.9147843" id="316" type="truck">
		<route edges=":49_1 37625"/>
	</vehicle>
</routes>
