<routes>
	<vehicle depart="0.1" departLane="0" departPos="38.18350180545346" departSpeed="0.79924885" id="317" type="bicycle">
		<route edges="2089 2037"/>
	</vehicle>
	<vehicle depart="0.1" departLane="0" departPos="27.269699158878623" departSpeed="0.34761508" id="326" type="bicycle">
		<route edges="2089 2037"/>
	</vehicle>
	<vehicle depart="0.1" departLane="0" departPos="57.419975719125716" departSpeed="0.0" id="30" type="passenger">
		<route edges="2038 2088"/>
	</vehicle>
	<vehicle depart="0.1" departLane="0" departPos="2.5" departSpeed="3.5671807" id="33" type="passenger">
		<route edges=":28_5 2037"/>
	</vehicle>
	<vehicle depart="0.1" departLane="0" departPos="61.56511127509101" departSpeed="1.9549122" id="35" type="passenger">
		<route edges="2089 3519"/>
	</vehicle>
	<vehicle depart="0.1" departLane="0" departPos="42.59276801635265" departSpeed="1.1811755" id="39" type="passenger">
		<route edges="2089 2037"/>
	</vehicle>
	<vehicle depart="0.1" departLane="0" departPos="29.829501573124983" departSpeed="1.9889402" id="324" type="passenger">
		<route edges="2089 2037"/>
	</vehicle>
	<vehicle depart="0.1" departLane="0" departPos="67.42164720068567" departSpeed="0.0" id="38" type="truck">
		<route edges="2038 2088"/>
	</vehicle>
</routes>
