<!-- generated on Tue Feb  9 22:22:15 2021 by Eclipse SUMO netconvert Version 1.8.0
<configuration xmlns:xsi="http://www.w3.org/2001/XMLSchema-instance" xsi:noNamespaceSchemaLocation="http://sumo.dlr.de/xsd/netconvertConfiguration.xsd">

    <input>
        <node-files value="./converted_scenarios/scenario-factory/DEU_Moelln-1_3_I-1-1/DEU_Moelln-1_3_I-1-1.nod.xml"/>
        <edge-files value="./converted_scenarios/scenario-factory/DEU_Moelln-1_3_I-1-1/DEU_Moelln-1_3_I-1-1.edg.xml"/>
        <connection-files value="./converted_scenarios/scenario-factory/DEU_Moelln-1_3_I-1-1/DEU_Moelln-1_3_I-1-1.con.xml"/>
        <tllogic-files value="./converted_scenarios/scenario-factory/DEU_Moelln-1_3_I-1-1/DEU_Moelln-1_3_I-1-1.tll.xml"/>
        <type-files value="/home/zen/commonroad-interactive-benchmarks/install/commonroad-map-tool/crmapconverter/sumo_map/templates/DEU.typ.xml"/>
    </input>

    <output>
        <output-file value="./converted_scenarios/scenario-factory/DEU_Moelln-1_3_I-1-1/DEU_Moelln-1_3_I-1-1.net.xml"/>
    </output>

    <processing>
        <geometry.remove.keep-edges.explicit value="true"/>
        <geometry.avoid-overlap value="true"/>
        <offset.disable-normalization value="true"/>
    </processing>

    <junctions>
        <no-turnarounds value="true"/>
        <junctions.internal-link-detail value="20"/>
    </junctions>

    <report>
        <aggregate-warnings value="5"/>
    </report>

    <random_number>
        <seed value="1234"/>
    </random_number>

</configuration>
--><net xmlns:xsi="http://www.w3.org/2001/XMLSchema-instance" version="1.6" junctionCornerDetail="5" junctionLinkDetail="20" limitTurnSpeed="5.50" xsi:noNamespaceSchemaLocation="http://sumo.dlr.de/xsd/net_file.xsd">

    <location netOffset="0.00,0.00" convBoundary="836.40,-708.61,1021.58,-456.56" origBoundary="836.40,-708.61,1021.58,-456.56" projParameter="!"/>

    <type id="highway.bridleway" priority="1" speed="2.78" allow="pedestrian" oneway="1" width="2.00"/>
    <type id="highway.bus_guideway" priority="1" speed="27.78" allow="bus" oneway="1"/>
    <type id="highway.cycleway" priority="1" speed="8.33" allow="bicycle" oneway="0" width="1.00"/>
    <type id="highway.footway" priority="1" speed="2.78" allow="pedestrian" oneway="1" width="2.00"/>
    <type id="highway.ford" priority="1" speed="2.78" allow="army" oneway="0"/>
    <type id="highway.living_street" priority="2" speed="2.78" disallow="tram rail_urban rail rail_electric rail_fast ship" oneway="0"/>
    <type id="highway.motorway" priority="14" speed="39.44" allow="private emergency authority army vip passenger hov taxi bus coach delivery truck trailer motorcycle evehicle custom1 custom2" oneway="1"/>
    <type id="highway.motorway_link" priority="9" speed="22.22" allow="private emergency authority army vip passenger hov taxi bus coach delivery truck trailer motorcycle evehicle custom1 custom2" oneway="1"/>
    <type id="highway.path" priority="1" speed="2.78" allow="pedestrian bicycle" oneway="0" width="2.00"/>
    <type id="highway.pedestrian" priority="1" speed="2.78" allow="pedestrian" oneway="1" width="2.00"/>
    <type id="highway.primary" priority="12" speed="27.78" disallow="pedestrian tram rail_urban rail rail_electric rail_fast ship" oneway="0"/>
    <type id="highway.primary_link" priority="7" speed="22.22" disallow="pedestrian tram rail_urban rail rail_electric rail_fast ship" oneway="0"/>
    <type id="highway.raceway" priority="15" speed="83.33" allow="vip" oneway="0"/>
    <type id="highway.residential" priority="3" speed="13.89" disallow="pedestrian tram rail_urban rail rail_electric rail_fast ship" oneway="0"/>
    <type id="highway.secondary" priority="11" speed="27.78" disallow="pedestrian tram rail_urban rail rail_electric rail_fast ship" oneway="0"/>
    <type id="highway.secondary_link" priority="6" speed="22.22" disallow="pedestrian tram rail_urban rail rail_electric rail_fast ship" oneway="0"/>
    <type id="highway.service" priority="1" speed="5.56" allow="pedestrian delivery bicycle" oneway="0"/>
    <type id="highway.stairs" priority="1" speed="1.39" allow="pedestrian" oneway="1" width="2.00"/>
    <type id="highway.step" priority="1" speed="1.39" allow="pedestrian" oneway="1" width="2.00"/>
    <type id="highway.steps" priority="1" speed="1.39" allow="pedestrian" oneway="1" width="2.00"/>
    <type id="highway.tertiary" priority="10" speed="22.22" disallow="pedestrian tram rail_urban rail rail_electric rail_fast ship" oneway="0"/>
    <type id="highway.tertiary_link" priority="5" speed="22.22" disallow="pedestrian tram rail_urban rail rail_electric rail_fast ship" oneway="0"/>
    <type id="highway.track" priority="1" speed="5.56" allow="pedestrian motorcycle moped bicycle" oneway="0"/>
    <type id="highway.trunk" priority="13" speed="27.78" disallow="pedestrian bicycle tram rail_urban rail rail_electric rail_fast ship" oneway="0"/>
    <type id="highway.trunk_link" priority="8" speed="22.22" disallow="pedestrian bicycle tram rail_urban rail rail_electric rail_fast ship" oneway="0"/>
    <type id="highway.unclassified" priority="4" speed="13.89" disallow="pedestrian tram rail_urban rail rail_electric rail_fast ship" oneway="0"/>
    <type id="highway.unsurfaced" priority="1" speed="8.33" disallow="tram rail_urban rail rail_electric rail_fast ship" oneway="0"/>
    <type id="railway.highspeed" priority="21" speed="69.44" allow="rail_fast" oneway="1"/>
    <type id="railway.light_rail" priority="19" speed="27.78" allow="rail_urban" oneway="1"/>
    <type id="railway.preserved" priority="16" speed="27.78" allow="rail" oneway="1"/>
    <type id="railway.rail" priority="20" speed="44.44" allow="rail" oneway="1"/>
    <type id="railway.subway" priority="18" speed="27.78" allow="rail_urban" oneway="1"/>
    <type id="railway.tram" priority="17" speed="13.89" allow="tram" oneway="1"/>

    <edge id=":22_0" function="internal">
        <lane id=":22_0_0" index="0" disallow="pedestrian tram rail_urban rail rail_electric rail_fast ship" speed="36.11" length="2.99" width="3.50" shape="923.82,-654.41 924.19,-657.38"/>
    </edge>
    <edge id=":24_0" function="internal">
        <lane id=":24_0_0" index="0" disallow="pedestrian tram rail_urban rail rail_electric rail_fast ship" speed="36.11" length="2.98" width="3.50" shape="927.66,-656.93 927.29,-653.97"/>
    </edge>
    <edge id=":27_0" function="internal">
        <lane id=":27_0_0" index="0" disallow="pedestrian tram rail_urban rail rail_electric rail_fast ship" speed="11.23" length="29.25" width="3.50" shape="936.22,-525.20 935.69,-527.38 935.01,-529.49 934.13,-531.49 933.05,-533.35 931.72,-535.03 931.01,-535.74 930.22,-536.41 929.37,-537.00 928.48,-537.53 927.54,-537.97 926.59,-538.34 924.50,-538.87 922.36,-539.12 920.17,-539.13 917.96,-538.95 914.59,-538.36"/>
    </edge>
    <edge id=":27_1" function="internal">
        <lane id=":27_1_0" index="0" disallow="pedestrian tram rail_urban rail rail_electric rail_fast ship" speed="36.11" length="39.51" width="3.50" shape="936.22,-525.20 935.57,-528.22 932.59,-540.33 926.39,-563.46"/>
    </edge>
    <edge id=":27_2" function="internal">
        <lane id=":27_2_0" index="0" disallow="pedestrian tram rail_urban rail rail_electric rail_fast ship" speed="12.22" length="34.04" width="3.50" shape="936.22,-525.20 935.79,-527.70 935.55,-530.25 935.55,-532.84 935.83,-535.45 936.47,-538.00 936.94,-539.29 937.52,-540.51 938.20,-541.68 938.99,-542.79 939.86,-543.83 940.81,-544.78 941.85,-545.67 944.01,-547.14 946.33,-548.34 948.75,-549.27 952.39,-550.27"/>
    </edge>
    <edge id=":27_3" function="internal">
        <lane id=":27_3_0" index="0" disallow="pedestrian tram rail_urban rail rail_electric rail_fast ship" speed="11.22" length="28.49" width="3.50" shape="953.13,-546.85 949.98,-545.99 947.94,-545.20 945.98,-544.19 944.17,-542.96 943.34,-542.24 942.57,-541.47 941.86,-540.63 941.23,-539.73 940.68,-538.78 940.21,-537.79 939.83,-536.76 939.30,-534.63 939.06,-532.45 939.07,-530.26 939.28,-528.07 939.65,-525.91"/>
    </edge>
    <edge id=":27_4" function="internal">
        <lane id=":27_4_0" index="0" disallow="pedestrian tram rail_urban rail rail_electric rail_fast ship" speed="36.11" length="39.46" width="3.50" shape="953.13,-546.85 933.89,-542.61 914.59,-538.36"/>
    </edge>
    <edge id=":27_5" function="internal">
        <lane id=":27_5_0" index="0" disallow="pedestrian tram rail_urban rail rail_electric rail_fast ship" speed="12.58" length="35.59" width="3.50" shape="953.13,-546.85 949.50,-546.25 946.98,-546.08 944.45,-546.15 941.91,-546.51 939.41,-547.20 937.02,-548.25 934.81,-549.65 932.84,-551.36 931.14,-553.31 929.71,-555.42 928.52,-557.64 927.53,-559.95 926.39,-563.46"/>
    </edge>
    <edge id=":27_6" function="internal">
        <lane id=":27_6_0" index="0" disallow="pedestrian tram rail_urban rail rail_electric rail_fast ship" speed="11.62" length="30.21" width="3.50" shape="929.76,-564.38 930.76,-561.30 931.61,-559.32 932.63,-557.41 933.84,-555.62 935.26,-553.99 936.89,-552.58 938.71,-551.42 940.68,-550.54 942.76,-549.97 944.90,-549.67 947.06,-549.60 949.21,-549.75 952.39,-550.27"/>
    </edge>
    <edge id=":27_7" function="internal">
        <lane id=":27_7_0" index="0" disallow="pedestrian tram rail_urban rail rail_electric rail_fast ship" speed="36.11" length="39.73" width="3.50" shape="929.76,-564.38 935.99,-541.16 938.98,-528.98 939.65,-525.91"/>
    </edge>
    <edge id=":27_8" function="internal">
        <lane id=":27_8_0" index="0" disallow="pedestrian tram rail_urban rail rail_electric rail_fast ship" speed="12.19" length="34.98" width="3.50" shape="929.76,-564.38 930.64,-560.45 930.97,-557.78 931.03,-555.09 930.77,-552.42 930.49,-551.10 930.11,-549.81 929.61,-548.56 929.01,-547.36 928.29,-546.22 927.47,-545.16 926.56,-544.17 925.56,-543.26 923.38,-541.70 921.00,-540.44 918.50,-539.45 915.92,-538.68 914.59,-538.36"/>
    </edge>
    <edge id=":27_9" function="internal">
        <lane id=":27_9_0" index="0" disallow="pedestrian tram rail_urban rail rail_electric rail_fast ship" speed="11.17" length="29.19" width="3.50" shape="913.85,-541.78 914.98,-542.05 917.22,-542.72 919.35,-543.56 921.34,-544.62 923.16,-545.92 923.93,-546.64 924.66,-547.43 925.31,-548.28 925.88,-549.18 926.36,-550.14 926.75,-551.14 927.06,-552.18 927.28,-553.22 927.50,-555.47 927.44,-557.74 927.16,-560.02 926.39,-563.46"/>
    </edge>
    <edge id=":27_10" function="internal">
        <lane id=":27_10_0" index="0" disallow="pedestrian tram rail_urban rail rail_electric rail_fast ship" speed="36.11" length="39.46" width="3.50" shape="913.85,-541.78 933.13,-546.03 952.39,-550.27"/>
    </edge>
    <edge id=":27_11" function="internal">
        <lane id=":27_11_0" index="0" disallow="pedestrian tram rail_urban rail rail_electric rail_fast ship" speed="12.22" length="34.87" width="3.50" shape="913.85,-541.78 917.68,-542.45 920.25,-542.66 922.83,-542.63 925.39,-542.33 927.89,-541.68 929.10,-541.22 930.26,-540.66 931.37,-540.01 932.43,-539.26 933.41,-538.42 934.32,-537.51 935.91,-535.48 937.21,-533.24 938.24,-530.88 939.04,-528.42 939.65,-525.91"/>
    </edge>
    <edge id=":28_0" function="internal">
        <lane id=":28_0_0" index="0" disallow="pedestrian tram rail_urban rail rail_electric rail_fast ship" speed="10.42" length="30.03" width="3.50" shape="921.76,-593.29 921.37,-596.76 920.93,-599.03 920.32,-601.26 919.47,-603.41 918.94,-604.44 918.33,-605.42 917.63,-606.34 916.84,-607.18 915.95,-607.92 914.98,-608.54 913.94,-609.04 912.85,-609.41 911.72,-609.65 910.57,-609.77 909.41,-609.78 907.11,-609.55 904.86,-609.05 902.69,-608.36"/>
    </edge>
    <edge id=":28_1" function="internal">
        <lane id=":28_1_0" index="0" disallow="pedestrian tram rail_urban rail rail_electric rail_fast ship" speed="36.11" length="36.37" width="3.50" shape="921.76,-593.29 921.09,-604.72 920.85,-615.11 920.98,-623.41 921.31,-629.63"/>
    </edge>
    <edge id=":28_2" function="internal">
        <lane id=":28_2_0" index="0" disallow="pedestrian tram rail_urban rail rail_electric rail_fast ship" speed="36.11" length="35.81" width="3.50" shape="924.80,-629.38 924.48,-623.27 924.35,-615.09 924.59,-604.85 925.25,-593.60"/>
    </edge>
    <edge id=":28_3" function="internal">
        <lane id=":28_3_0" index="0" disallow="pedestrian tram rail_urban rail rail_electric rail_fast ship" speed="14.60" length="32.28" width="3.50" shape="924.80,-629.38 924.43,-626.91 923.70,-624.51 922.62,-622.26 921.26,-620.20 919.68,-618.34 917.94,-616.67 916.07,-615.17 913.14,-613.21 910.08,-611.52 906.93,-610.04 902.69,-608.36"/>
    </edge>
    <edge id=":28_4" function="internal">
        <lane id=":28_4_0" index="0" disallow="pedestrian tram rail_urban rail rail_electric rail_fast ship" speed="13.62" length="28.35" width="3.50" shape="901.41,-611.61 905.37,-613.18 908.22,-614.50 910.99,-615.99 913.62,-617.71 915.28,-618.99 916.82,-620.41 918.21,-621.98 919.41,-623.70 920.35,-625.57 920.99,-627.57 921.31,-629.63"/>
    </edge>
    <edge id=":28_5" function="internal">
        <lane id=":28_5_0" index="0" disallow="pedestrian tram rail_urban rail rail_electric rail_fast ship" speed="11.48" length="36.75" width="3.50" shape="901.41,-611.62 904.05,-612.46 906.74,-613.07 909.50,-613.37 910.96,-613.36 912.41,-613.23 913.86,-612.94 915.28,-612.49 916.65,-611.87 917.93,-611.08 919.10,-610.13 920.14,-609.07 921.04,-607.92 921.82,-606.71 922.50,-605.42 923.53,-602.86 924.28,-600.22 924.79,-597.55 925.25,-593.60"/>
    </edge>

    <edge id="49651" from="24" to="28" priority="3" type="highway.residential" spreadType="center" length="24.75" shape="927.47,-655.45 917.91,-610.56">
        <lane id="49651_0" index="0" disallow="pedestrian tram rail_urban rail rail_electric rail_fast ship" speed="36.11" length="24.75" width="3.50" customShape="1" shape="927.29,-653.97 926.00,-643.08 924.89,-630.68 924.82,-629.64 924.81,-629.52 924.79,-629.35"/>
    </edge>
    <edge id="49654" from="25" to="24" priority="3" type="highway.residential" spreadType="center" length="51.64">
        <lane id="49654_0" index="0" disallow="pedestrian tram rail_urban rail rail_electric rail_fast ship" speed="36.11" length="51.64" width="3.50" customShape="1" shape="934.46,-708.12 930.96,-681.78 927.66,-656.93"/>
    </edge>
    <edge id="49655" from="22" to="23" priority="3" type="highway.residential" spreadType="center" length="51.68">
        <lane id="49655_0" index="0" disallow="pedestrian tram rail_urban rail rail_electric rail_fast ship" speed="36.11" length="51.68" width="3.50" customShape="1" shape="924.19,-657.38 927.49,-682.24 930.99,-708.61"/>
    </edge>
    <edge id="49690" from="19" to="27" priority="3" type="highway.residential" spreadType="center" length="70.01" shape="1021.58,-561.52 933.58,-542.81">
        <lane id="49690_0" index="0" disallow="pedestrian tram rail_urban rail rail_electric rail_fast ship" speed="36.11" length="70.01" width="3.50" customShape="1" shape="1021.58,-561.52 953.12,-546.85"/>
    </edge>
    <edge id="49691" from="27" to="12" priority="3" type="highway.residential" spreadType="center" length="69.99" shape="932.85,-546.23 1020.83,-564.94">
        <lane id="49691_0" index="0" disallow="pedestrian tram rail_urban rail rail_electric rail_fast ship" speed="36.11" length="69.99" width="3.50" customShape="1" shape="952.39,-550.27 1020.83,-564.94"/>
    </edge>
    <edge id="49702" from="20" to="28" priority="3" type="highway.residential" spreadType="center" length="70.00" shape="836.40,-585.92 915.69,-612.66">
        <lane id="49702_0" index="0" disallow="pedestrian tram rail_urban rail rail_electric rail_fast ship" speed="36.11" length="70.00" width="3.50" customShape="1" shape="836.40,-585.92 860.53,-595.14 880.65,-602.91 894.93,-609.07 901.49,-611.65"/>
    </edge>
    <edge id="49703" from="28" to="17" priority="3" type="highway.residential" spreadType="center" length="70.00" shape="916.81,-609.34 837.60,-582.64">
        <lane id="49703_0" index="0" disallow="pedestrian tram rail_urban rail rail_electric rail_fast ship" speed="36.11" length="70.00" width="3.50" customShape="1" shape="902.69,-608.36 896.19,-605.80 881.91,-599.65 861.76,-591.86 837.60,-582.64"/>
    </edge>
    <edge id="50067" from="27" to="14" priority="3" type="highway.residential" spreadType="center" length="69.99" shape="933.66,-542.83 846.21,-523.43">
        <lane id="50067_0" index="0" disallow="pedestrian tram rail_urban rail rail_electric rail_fast ship" speed="36.11" length="69.99" width="3.50" customShape="1" shape="914.59,-538.36 846.21,-523.43"/>
    </edge>
    <edge id="50068" from="18" to="27" priority="3" type="highway.residential" spreadType="center" length="70.00" shape="845.46,-526.85 932.90,-546.24">
        <lane id="50068_0" index="0" disallow="pedestrian tram rail_urban rail rail_electric rail_fast ship" speed="36.11" length="70.00" width="3.50" customShape="1" shape="845.46,-526.85 913.85,-541.78"/>
    </edge>
    <edge id="50124" from="27" to="28" priority="3" type="highway.residential" spreadType="center" length="30.27" shape="931.55,-544.09 914.51,-610.59">
        <lane id="50124_0" index="0" disallow="pedestrian tram rail_urban rail rail_electric rail_fast ship" speed="36.11" length="30.27" width="3.50" customShape="1" shape="926.39,-563.46 924.90,-569.43 923.67,-575.98 922.64,-583.61 921.76,-593.32"/>
    </edge>
    <edge id="50125" from="28" to="27" priority="3" type="highway.residential" spreadType="center" length="29.69" shape="917.90,-611.46 934.94,-544.96">
        <lane id="50125_0" index="0" disallow="pedestrian tram rail_urban rail rail_electric rail_fast ship" speed="36.11" length="29.69" width="3.50" customShape="1" shape="925.25,-593.60 926.11,-584.05 927.12,-576.59 928.31,-570.20 929.78,-564.31"/>
    </edge>
    <edge id="50127" from="21" to="27" priority="3" type="highway.residential" spreadType="center" length="70.02" shape="949.93,-456.56 931.53,-544.20">
        <lane id="50127_0" index="0" disallow="pedestrian tram rail_urban rail rail_electric rail_fast ship" speed="36.11" length="70.02" width="3.50" customShape="1" shape="949.93,-456.56 936.22,-525.22"/>
    </edge>
    <edge id="50128" from="27" to="13" priority="3" type="highway.residential" spreadType="center" length="70.00" shape="934.95,-544.92 953.35,-457.26">
        <lane id="50128_0" index="0" disallow="pedestrian tram rail_urban rail rail_electric rail_fast ship" speed="36.11" length="70.00" width="3.50" customShape="1" shape="939.65,-525.91 953.35,-457.26"/>
    </edge>
    <edge id="50594" from="28" to="22" priority="3" type="highway.residential" spreadType="center" length="24.91" shape="914.49,-611.28 924.00,-655.90">
        <lane id="50594_0" index="0" disallow="pedestrian tram rail_urban rail rail_electric rail_fast ship" speed="36.11" length="24.91" width="3.50" customShape="1" shape="921.31,-629.63 921.32,-629.76 921.33,-629.89 921.40,-630.94 922.51,-643.44 923.82,-654.41"/>
    </edge>

    <junction id="12" type="dead_end" x="1020.83" y="-564.94" incLanes="49691_0" intLanes="" shape="1020.47,-566.65 1021.20,-563.23" rightOfWay="edgePriority"/>
    <junction id="13" type="dead_end" x="953.35" y="-457.26" incLanes="50128_0" intLanes="" shape="955.07,-457.61 951.64,-456.92" rightOfWay="edgePriority"/>
    <junction id="14" type="dead_end" x="846.21" y="-523.43" incLanes="50067_0" intLanes="" shape="846.58,-521.72 845.83,-525.14" rightOfWay="edgePriority"/>
    <junction id="17" type="dead_end" x="837.60" y="-582.64" incLanes="49703_0" intLanes="" shape="838.22,-581.00 836.97,-584.27" rightOfWay="edgePriority"/>
    <junction id="18" type="dead_end" x="845.46" y="-526.85" incLanes="" intLanes="" shape="845.84,-525.14 845.09,-528.56" rightOfWay="edgePriority"/>
    <junction id="19" type="dead_end" x="1021.58" y="-561.52" incLanes="" intLanes="" shape="1021.21,-563.23 1021.94,-559.81" rightOfWay="edgePriority"/>
    <junction id="20" type="dead_end" x="836.40" y="-585.92" incLanes="" intLanes="" shape="837.02,-584.29 835.77,-587.56" rightOfWay="edgePriority"/>
    <junction id="21" type="dead_end" x="949.93" y="-456.56" incLanes="" intLanes="" shape="951.64,-456.90 948.21,-456.21" rightOfWay="edgePriority"/>
    <junction id="22" type="priority" x="924.00" y="-655.90" incLanes="50594_0" intLanes=":22_0_0" shape="925.93,-657.15 922.46,-657.61 922.08,-654.62 925.55,-654.21" rightOfWay="edgePriority">
        <request index="0" response="0" foes="0" cont="0"/>
    </junction>
    <junction id="23" type="dead_end" x="930.99" y="-708.61" incLanes="49655_0" intLanes="" shape="929.26,-708.84 932.73,-708.38" rightOfWay="edgePriority"/>
    <junction id="24" type="priority" x="927.47" y="-655.45" incLanes="49654_0" intLanes=":24_0_0" shape="929.40,-656.70 925.93,-657.16 925.55,-654.17 929.03,-653.76" rightOfWay="edgePriority">
        <request index="0" response="0" foes="0" cont="0"/>
    </junction>
    <junction id="25" type="dead_end" x="934.46" y="-708.12" incLanes="" intLanes="" shape="932.73,-708.35 936.19,-707.89" rightOfWay="edgePriority"/>
    <junction id="27" type="priority" x="933.25" y="-544.53" incLanes="50127_0 49690_0 50125_0 50068_0" intLanes=":27_0_0 :27_1_0 :27_2_0 :27_3_0 :27_4_0 :27_5_0 :27_6_0 :27_7_0 :27_8_0 :27_9_0 :27_10_0 :27_11_0" shape="934.50,-524.88 941.37,-526.25 940.84,-531.12 941.33,-535.29 942.84,-538.79 945.37,-541.59 948.92,-543.71 953.49,-545.14 952.02,-551.98 946.87,-551.36 942.41,-551.83 938.64,-553.40 935.56,-556.08 933.17,-559.85 931.48,-564.73 924.69,-563.04 925.50,-557.99 925.24,-553.66 923.91,-550.04 921.50,-547.14 918.02,-544.96 913.47,-543.49 914.97,-536.65 920.08,-537.33 924.46,-536.94 928.08,-535.51 930.97,-533.02 933.11,-529.48">
        <request index="0" response="000000010000" foes="000100010000" cont="0"/>
        <request index="1" response="111000110000" foes="111100110000" cont="0"/>
        <request index="2" response="110011110000" foes="110011110000" cont="0"/>
        <request index="3" response="000000000000" foes="100010000000" cont="0"/>
        <request index="4" response="000000000000" foes="100110000111" cont="0"/>
        <request index="5" response="011000000000" foes="011110000110" cont="0"/>
        <request index="6" response="010000000000" foes="010000000100" cont="0"/>
        <request index="7" response="110000111000" foes="110000111100" cont="0"/>
        <request index="8" response="110000110011" foes="110000110011" cont="0"/>
        <request index="9" response="000000000000" foes="000000100010" cont="0"/>
        <request index="10" response="000000000000" foes="000111100110" cont="0"/>
        <request index="11" response="000000011000" foes="000110011110" cont="0"/>
    </junction>
    <junction id="28" type="priority" x="916.21" y="-610.99" incLanes="50124_0 49651_0 49702_0" intLanes=":28_0_0 :28_1_0 :28_2_0 :28_3_0 :28_4_0 :28_5_0" shape="920.02,-593.13 926.99,-593.76 926.30,-601.30 925.84,-606.89 925.62,-611.51 925.66,-616.12 925.96,-621.72 926.54,-629.26 919.56,-629.76 918.86,-626.69 917.18,-623.75 914.53,-620.93 910.91,-618.24 906.32,-615.68 900.77,-613.24 903.33,-606.73 907.94,-607.98 911.81,-607.83 914.96,-606.27 917.38,-603.30 919.06,-598.92">
        <request index="0" response="000000" foes="001000" cont="0"/>
        <request index="1" response="000000" foes="111000" cont="0"/>
        <request index="2" response="000000" foes="100000" cont="0"/>
        <request index="3" response="000011" foes="100011" cont="0"/>
        <request index="4" response="000010" foes="000010" cont="0"/>
        <request index="5" response="001110" foes="001110" cont="0"/>
    </junction>

    <connection from="49651" to="50125" fromLane="0" toLane="0" contPos="-4.00" shape="924.79,-629.35 924.48,-623.27 924.35,-615.09 924.59,-604.85 925.25,-593.60" via=":28_2_0" dir="s" state="M"/>
    <connection from="49651" to="49703" fromLane="0" toLane="0" contPos="-4.00" shape="924.79,-629.35 924.43,-626.91 923.70,-624.51 922.62,-622.26 921.26,-620.20 919.68,-618.34 917.94,-616.67 916.07,-615.17 913.14,-613.21 910.08,-611.52 906.93,-610.04 902.69,-608.36" via=":28_3_0" dir="l" state="m"/>
    <connection from="49654" to="49651" fromLane="0" toLane="0" contPos="-4.00" via=":24_0_0" dir="s" state="M"/>
    <connection from="49690" to="50128" fromLane="0" toLane="0" contPos="-4.00" shape="953.13,-546.85 949.98,-545.99 947.94,-545.20 945.98,-544.19 944.17,-542.96 943.34,-542.24 942.57,-541.47 941.86,-540.63 941.23,-539.73 940.68,-538.78 940.21,-537.79 939.83,-536.76 939.30,-534.63 939.06,-532.45 939.07,-530.26 939.28,-528.07 939.65,-525.91" via=":27_3_0" dir="r" state="M"/>
    <connection from="49690" to="50067" fromLane="0" toLane="0" contPos="-4.00" shape="953.13,-546.85 933.89,-542.61 914.59,-538.36" via=":27_4_0" dir="s" state="M"/>
    <connection from="49690" to="50124" fromLane="0" toLane="0" contPos="-4.00" shape="953.13,-546.85 949.50,-546.25 946.98,-546.08 944.45,-546.15 941.91,-546.51 939.41,-547.20 937.02,-548.25 934.81,-549.65 932.84,-551.36 931.14,-553.31 929.71,-555.42 928.52,-557.64 927.53,-559.95 926.39,-563.46" via=":27_5_0" dir="l" state="m"/>
    <connection from="49702" to="50594" fromLane="0" toLane="0" contPos="-4.00" shape="901.49,-611.65 905.37,-613.18 908.22,-614.50 910.99,-615.99 913.62,-617.71 915.28,-618.99 916.82,-620.41 918.21,-621.98 919.41,-623.70 920.35,-625.57 920.99,-627.57 921.31,-629.63" via=":28_4_0" dir="r" state="m"/>
    <connection from="49702" to="50125" fromLane="0" toLane="0" contPos="-4.00" shape="901.49,-611.65 904.05,-612.46 906.74,-613.07 909.50,-613.37 910.96,-613.36 912.41,-613.23 913.86,-612.94 915.28,-612.49 916.65,-611.87 917.93,-611.08 919.10,-610.13 920.14,-609.07 921.04,-607.92 921.82,-606.71 922.50,-605.42 923.53,-602.86 924.28,-600.22 924.79,-597.55 925.25,-593.60" via=":28_5_0" dir="l" state="m"/>
    <connection from="50068" to="50124" fromLane="0" toLane="0" contPos="-4.00" shape="913.85,-541.78 914.98,-542.05 917.22,-542.72 919.35,-543.56 921.34,-544.62 923.16,-545.92 923.93,-546.64 924.66,-547.43 925.31,-548.28 925.88,-549.18 926.36,-550.14 926.75,-551.14 927.06,-552.18 927.28,-553.22 927.50,-555.47 927.44,-557.74 927.16,-560.02 926.39,-563.46" via=":27_9_0" dir="r" state="M"/>
    <connection from="50068" to="49691" fromLane="0" toLane="0" contPos="-4.00" shape="913.85,-541.78 933.13,-546.03 952.39,-550.27" via=":27_10_0" dir="s" state="M"/>
    <connection from="50068" to="50128" fromLane="0" toLane="0" contPos="-4.00" shape="913.85,-541.78 917.68,-542.45 920.25,-542.66 922.83,-542.63 925.39,-542.33 927.89,-541.68 929.10,-541.22 930.26,-540.66 931.37,-540.01 932.43,-539.26 933.41,-538.42 934.32,-537.51 935.91,-535.48 937.21,-533.24 938.24,-530.88 939.04,-528.42 939.65,-525.91" via=":27_11_0" dir="l" state="m"/>
    <connection from="50124" to="49703" fromLane="0" toLane="0" contPos="-4.00" shape="921.76,-593.32 921.37,-596.76 920.93,-599.03 920.32,-601.26 919.47,-603.41 918.94,-604.44 918.33,-605.42 917.63,-606.34 916.84,-607.18 915.95,-607.92 914.98,-608.54 913.94,-609.04 912.85,-609.41 911.72,-609.65 910.57,-609.77 909.41,-609.78 907.11,-609.55 904.86,-609.05 902.69,-608.36" via=":28_0_0" dir="r" state="M"/>
    <connection from="50124" to="50594" fromLane="0" toLane="0" contPos="-4.00" shape="921.76,-593.32 921.09,-604.72 920.85,-615.11 920.98,-623.41 921.31,-629.63" via=":28_1_0" dir="s" state="M"/>
    <connection from="50125" to="49691" fromLane="0" toLane="0" contPos="-4.00" shape="929.76,-564.38 930.76,-561.30 931.61,-559.32 932.63,-557.41 933.84,-555.62 935.26,-553.99 936.89,-552.58 938.71,-551.42 940.68,-550.54 942.76,-549.97 944.90,-549.67 947.06,-549.60 949.21,-549.75 952.39,-550.27" via=":27_6_0" dir="r" state="m"/>
    <connection from="50125" to="50128" fromLane="0" toLane="0" contPos="-4.00" shape="929.76,-564.38 935.99,-541.16 938.98,-528.98 939.65,-525.91" via=":27_7_0" dir="s" state="m"/>
    <connection from="50125" to="50067" fromLane="0" toLane="0" contPos="-4.00" shape="929.76,-564.38 930.64,-560.45 930.97,-557.78 931.03,-555.09 930.77,-552.42 930.49,-551.10 930.11,-549.81 929.61,-548.56 929.01,-547.36 928.29,-546.22 927.47,-545.16 926.56,-544.17 925.56,-543.26 923.38,-541.70 921.00,-540.44 918.50,-539.45 915.92,-538.68 914.59,-538.36" via=":27_8_0" dir="l" state="m"/>
    <connection from="50127" to="50067" fromLane="0" toLane="0" contPos="-4.00" shape="936.22,-525.20 935.69,-527.38 935.01,-529.49 934.13,-531.49 933.05,-533.35 931.72,-535.03 931.01,-535.74 930.22,-536.41 929.37,-537.00 928.48,-537.53 927.54,-537.97 926.59,-538.34 924.50,-538.87 922.36,-539.12 920.17,-539.13 917.96,-538.95 914.59,-538.36" via=":27_0_0" dir="r" state="m"/>
    <connection from="50127" to="50124" fromLane="0" toLane="0" contPos="-4.00" shape="936.22,-525.20 935.57,-528.22 932.59,-540.33 926.39,-563.46" via=":27_1_0" dir="s" state="m"/>
    <connection from="50127" to="49691" fromLane="0" toLane="0" contPos="-4.00" shape="936.22,-525.20 935.79,-527.70 935.55,-530.25 935.55,-532.84 935.83,-535.45 936.47,-538.00 936.94,-539.29 937.52,-540.51 938.20,-541.68 938.99,-542.79 939.86,-543.83 940.81,-544.78 941.85,-545.67 944.01,-547.14 946.33,-548.34 948.75,-549.27 952.39,-550.27" via=":27_2_0" dir="l" state="m"/>
    <connection from="50594" to="49655" fromLane="0" toLane="0" contPos="-4.00" via=":22_0_0" dir="s" state="M"/>

    <connection from=":22_0" to="49655" fromLane="0" toLane="0" dir="s" state="M"/>
    <connection from=":24_0" to="49651" fromLane="0" toLane="0" dir="s" state="M"/>
    <connection from=":27_0" to="50067" fromLane="0" toLane="0" dir="r" state="M"/>
    <connection from=":27_1" to="50124" fromLane="0" toLane="0" dir="s" state="M"/>
    <connection from=":27_2" to="49691" fromLane="0" toLane="0" dir="l" state="M"/>
    <connection from=":27_3" to="50128" fromLane="0" toLane="0" dir="r" state="M"/>
    <connection from=":27_4" to="50067" fromLane="0" toLane="0" dir="s" state="M"/>
    <connection from=":27_5" to="50124" fromLane="0" toLane="0" dir="l" state="M"/>