<routes>
	<vehicle depart="0.1" departLane="0" departPos="66.84646697834589" departSpeed="2.2580279" id="312" type="bicycle">
		<route edges="50068 49691"/>
	</vehicle>
	<vehicle depart="0.1" departLane="0" departPos="26.645026251942483" departSpeed="1.0185991" id="34" type="passenger">
		<route edges=":27_8 50067"/>
	</vehicle>
	<vehicle depart="0.1" departLane="0" departPos="15.295345736875072" departSpeed="0.98325506" id="318" type="passenger">
		<route edges=":27_8 50067"/>
	</vehicle>
	<vehicle depart="0.1" departLane="0" departPos="45.24639628468739" departSpeed="1.5158164" id="319" type="passenger">
		<route edges="50068 50128"/>
	</vehicle>
	<vehicle depart="0.1" departLane="0" departPos="31.19905538034737" departSpeed="0.649849" id="320" type="passenger">
		<route edges="50125 50128"/>
	</vehicle>
	<vehicle depart="0.1" departLane="0" departPos="39.90780585301509" departSpeed="0.95364259" id="326" type="passenger">
		<route edges="50068 50128"/>
	</vehicle>
	<vehicle depart="0.1" departLane="0" departPos="34.46972516292074" departSpeed="14.272124" id="342" type="passenger">
		<route edges=":27_4 50067"/>
	</vehicle>
	<vehicle depart="0.1" departLane="0" departPos="44.29465919812897" departSpeed="11.794584" id="349" type="passenger">
		<route edges="49690 50067"/>
	</vehicle>
	<vehicle depart="0.1" departLane="0" departPos="21.446883602565038" departSpeed="1.8730119" id="30" type="truck">
		<route edges=":27_11 50128"/>
	</vehicle>
	<vehicle depart="0.1" departLane="0" departPos="14.714626595272465" departSpeed="0.28909766" id="31" type="truck">
		<route edges=":27_0 50067"/>
	</vehicle>
</routes>
