<!-- generated on Tue Feb  9 22:06:05 2021 by Eclipse SUMO netconvert Version 1.8.0
<configuration xmlns:xsi="http://www.w3.org/2001/XMLSchema-instance" xsi:noNamespaceSchemaLocation="http://sumo.dlr.de/xsd/netconvertConfiguration.xsd">

    <input>
        <node-files value="./converted_scenarios/scenario-factory/BEL_Zwevegem-7_1_I-1-1/BEL_Zwevegem-7_1_I-1-1.nod.xml"/>
        <edge-files value="./converted_scenarios/scenario-factory/BEL_Zwevegem-7_1_I-1-1/BEL_Zwevegem-7_1_I-1-1.edg.xml"/>
        <connection-files value="./converted_scenarios/scenario-factory/BEL_Zwevegem-7_1_I-1-1/BEL_Zwevegem-7_1_I-1-1.con.xml"/>
        <tllogic-files value="./converted_scenarios/scenario-factory/BEL_Zwevegem-7_1_I-1-1/BEL_Zwevegem-7_1_I-1-1.tll.xml"/>
        <type-files value="/home/zen/commonroad-interactive-benchmarks/install/commonroad-map-tool/crmapconverter/sumo_map/templates/DEU.typ.xml"/>
    </input>

    <output>
        <output-file value="./converted_scenarios/scenario-factory/BEL_Zwevegem-7_1_I-1-1/BEL_Zwevegem-7_1_I-1-1.net.xml"/>
    </output>

    <processing>
        <geometry.remove.keep-edges.explicit value="true"/>
        <geometry.avoid-overlap value="true"/>
        <offset.disable-normalization value="true"/>
    </processing>

    <junctions>
        <no-turnarounds value="true"/>
        <junctions.internal-link-detail value="20"/>
    </junctions>

    <report>
        <aggregate-warnings value="5"/>
    </report>

    <random_number>
        <seed value="1234"/>
    </random_number>

</configuration>
--><net xmlns:xsi="http://www.w3.org/2001/XMLSchema-instance" version="1.6" junctionCornerDetail="5" junctionLinkDetail="20" limitTurnSpeed="5.50" xsi:noNamespaceSchemaLocation="http://sumo.dlr.de/xsd/net_file.xsd">

    <location netOffset="0.00,0.00" convBoundary="397.48,-128.98,553.11,106.63" origBoundary="397.48,-128.98,553.11,106.63" projParameter="!"/>

    <type id="highway.bridleway" priority="1" speed="2.78" allow="pedestrian" oneway="1" width="2.00"/>
    <type id="highway.bus_guideway" priority="1" speed="27.78" allow="bus" oneway="1"/>
    <type id="highway.cycleway" priority="1" speed="8.33" allow="bicycle" oneway="0" width="1.00"/>
    <type id="highway.footway" priority="1" speed="2.78" allow="pedestrian" oneway="1" width="2.00"/>
    <type id="highway.ford" priority="1" speed="2.78" allow="army" oneway="0"/>
    <type id="highway.living_street" priority="2" speed="2.78" disallow="tram rail_urban rail rail_electric rail_fast ship" oneway="0"/>
    <type id="highway.motorway" priority="14" speed="39.44" allow="private emergency authority army vip passenger hov taxi bus coach delivery truck trailer motorcycle evehicle custom1 custom2" oneway="1"/>
    <type id="highway.motorway_link" priority="9" speed="22.22" allow="private emergency authority army vip passenger hov taxi bus coach delivery truck trailer motorcycle evehicle custom1 custom2" oneway="1"/>
    <type id="highway.path" priority="1" speed="2.78" allow="pedestrian bicycle" oneway="0" width="2.00"/>
    <type id="highway.pedestrian" priority="1" speed="2.78" allow="pedestrian" oneway="1" width="2.00"/>
    <type id="highway.primary" priority="12" speed="27.78" disallow="pedestrian tram rail_urban rail rail_electric rail_fast ship" oneway="0"/>
    <type id="highway.primary_link" priority="7" speed="22.22" disallow="pedestrian tram rail_urban rail rail_electric rail_fast ship" oneway="0"/>
    <type id="highway.raceway" priority="15" speed="83.33" allow="vip" oneway="0"/>
    <type id="highway.residential" priority="3" speed="13.89" disallow="pedestrian tram rail_urban rail rail_electric rail_fast ship" oneway="0"/>
    <type id="highway.secondary" priority="11" speed="27.78" disallow="pedestrian tram rail_urban rail rail_electric rail_fast ship" oneway="0"/>
    <type id="highway.secondary_link" priority="6" speed="22.22" disallow="pedestrian tram rail_urban rail rail_electric rail_fast ship" oneway="0"/>
    <type id="highway.service" priority="1" speed="5.56" allow="pedestrian delivery bicycle" oneway="0"/>
    <type id="highway.stairs" priority="1" speed="1.39" allow="pedestrian" oneway="1" width="2.00"/>
    <type id="highway.step" priority="1" speed="1.39" allow="pedestrian" oneway="1" width="2.00"/>
    <type id="highway.steps" priority="1" speed="1.39" allow="pedestrian" oneway="1" width="2.00"/>
    <type id="highway.tertiary" priority="10" speed="22.22" disallow="pedestrian tram rail_urban rail rail_electric rail_fast ship" oneway="0"/>
    <type id="highway.tertiary_link" priority="5" speed="22.22" disallow="pedestrian tram rail_urban rail rail_electric rail_fast ship" oneway="0"/>
    <type id="highway.track" priority="1" speed="5.56" allow="pedestrian motorcycle moped bicycle" oneway="0"/>
    <type id="highway.trunk" priority="13" speed="27.78" disallow="pedestrian bicycle tram rail_urban rail rail_electric rail_fast ship" oneway="0"/>
    <type id="highway.trunk_link" priority="8" speed="22.22" disallow="pedestrian bicycle tram rail_urban rail rail_electric rail_fast ship" oneway="0"/>
    <type id="highway.unclassified" priority="4" speed="13.89" disallow="pedestrian tram rail_urban rail rail_electric rail_fast ship" oneway="0"/>
    <type id="highway.unsurfaced" priority="1" speed="8.33" disallow="tram rail_urban rail rail_electric rail_fast ship" oneway="0"/>
    <type id="railway.highspeed" priority="21" speed="69.44" allow="rail_fast" oneway="1"/>
    <type id="railway.light_rail" priority="19" speed="27.78" allow="rail_urban" oneway="1"/>
    <type id="railway.preserved" priority="16" speed="27.78" allow="rail" oneway="1"/>
    <type id="railway.rail" priority="20" speed="44.44" allow="rail" oneway="1"/>
    <type id="railway.subway" priority="18" speed="27.78" allow="rail_urban" oneway="1"/>
    <type id="railway.tram" priority="17" speed="13.89" allow="tram" oneway="1"/>

    <edge id=":29_0" function="internal">
        <lane id=":29_0_0" index="0" disallow="pedestrian tram rail_urban rail rail_electric rail_fast ship" speed="36.11" length="3.20" width="3.50" shape="425.34,-45.64 423.33,-48.13"/>
    </edge>
    <edge id=":36_0" function="internal">
        <lane id=":36_0_0" index="0" disallow="pedestrian tram rail_urban rail rail_electric rail_fast ship" speed="36.11" length="3.21" width="3.50" shape="426.02,-50.37 428.04,-47.87"/>
    </edge>
    <edge id=":37_0" function="internal">
        <lane id=":37_0_0" index="0" disallow="pedestrian tram rail_urban rail rail_electric rail_fast ship" speed="36.11" length="2.94" width="3.50" shape="422.18,-75.07 423.87,-77.48"/>
    </edge>
    <edge id=":39_0" function="internal">
        <lane id=":39_0_0" index="0" disallow="pedestrian tram rail_urban rail rail_electric rail_fast ship" speed="36.11" length="0.10" width="3.50" shape="425.83,-74.28 425.83,-74.28"/>
    </edge>
    <edge id=":45_0" function="internal">
        <lane id=":45_0_0" index="0" disallow="pedestrian tram rail_urban rail rail_electric rail_fast ship" speed="36.11" length="3.00" width="3.50" shape="494.31,-21.28 492.64,-18.79"/>
    </edge>
    <edge id=":47_0" function="internal">
        <lane id=":47_0_0" index="0" disallow="pedestrian tram rail_urban rail rail_electric rail_fast ship" speed="36.11" length="27.43" width="3.50" shape="473.37,9.71 468.79,15.59 463.98,21.17 458.91,26.51 455.15,30.17"/>
    </edge>
    <edge id=":47_1" function="internal">
        <lane id=":47_1_0" index="0" disallow="pedestrian tram rail_urban rail rail_electric rail_fast ship" speed="9.43" length="25.88" width="3.50" shape="473.37,9.71 472.35,10.95 471.26,12.00 470.00,12.86 468.61,13.44 467.11,13.66 465.60,13.52 464.15,13.06 462.80,12.38 461.54,11.54 460.35,10.58 458.19,8.45 456.23,6.13 453.56,2.44"/>
    </edge>
    <edge id=":47_2" function="internal">
        <lane id=":47_2_0" index="0" disallow="pedestrian tram rail_urban rail rail_electric rail_fast ship" speed="8.15" length="18.90" width="3.50" shape="456.48,0.50 458.70,3.60 460.29,5.53 462.02,7.31 462.90,8.08 463.83,8.77 464.78,9.32 465.74,9.71 466.65,9.90 467.48,9.88 468.27,9.65 469.05,9.20 469.80,8.53 470.54,7.65"/>
    </edge>
    <edge id=":47_3" function="internal">
        <lane id=":47_3_0" index="0" disallow="pedestrian tram rail_urban rail rail_electric rail_fast ship" speed="12.74" length="32.82" width="3.50" shape="456.48,0.50 458.38,3.61 459.99,6.92 460.87,9.27 461.51,11.71 461.87,14.24 461.90,16.81 461.56,19.38 460.85,21.87 459.79,24.23 458.45,26.40 456.88,28.38 455.15,30.17"/>
    </edge>
    <edge id=":47_4" function="internal">
        <lane id=":47_4_0" index="0" disallow="pedestrian tram rail_urban rail rail_electric rail_fast ship" speed="11.76" length="27.79" width="3.50" shape="452.81,27.56 454.23,26.09 455.56,24.41 456.68,22.57 457.54,20.61 458.11,18.54 458.36,16.41 458.31,14.27 457.98,12.15 457.42,10.08 456.67,8.07 455.24,5.18 453.56,2.44"/>
    </edge>
    <edge id=":47_5" function="internal">
        <lane id=":47_5_0" index="0" disallow="pedestrian tram rail_urban rail rail_electric rail_fast ship" speed="36.11" length="26.69" width="3.50" shape="452.81,27.56 456.42,24.05 461.38,18.82 466.08,13.37 470.54,7.65"/>
    </edge>
    <edge id=":48_0" function="internal">
        <lane id=":48_0_0" index="0" disallow="pedestrian tram rail_urban rail rail_electric rail_fast ship" speed="10.84" length="29.19" width="3.50" shape="509.69,49.59 507.61,46.94 506.05,45.33 504.34,43.88 503.41,43.24 502.44,42.67 501.43,42.18 500.38,41.78 499.30,41.49 498.19,41.30 497.07,41.23 495.95,41.27 494.84,41.41 493.74,41.66 492.67,42.00 490.62,42.90 488.68,44.03 486.86,45.35 485.14,46.79"/>
    </edge>
    <edge id=":48_1" function="internal">
        <lane id=":48_1_0" index="0" disallow="pedestrian tram rail_urban rail rail_electric rail_fast ship" speed="36.11" length="39.36" width="3.50" shape="509.69,49.59 492.19,25.21 486.67,17.66"/>
    </edge>
    <edge id=":48_2" function="internal">
        <lane id=":48_2_0" index="0" disallow="pedestrian tram rail_urban rail rail_electric rail_fast ship" speed="36.11" length="39.40" width="3.50" shape="489.49,15.58 495.02,23.15 512.53,47.54"/>
    </edge>
    <edge id=":48_3" function="internal">
        <lane id=":48_3_0" index="0" disallow="pedestrian tram rail_urban rail rail_electric rail_fast ship" speed="12.87" length="35.37" width="3.50" shape="489.49,15.58 491.58,18.78 492.73,21.03 493.65,23.38 494.28,25.83 494.58,28.33 494.53,30.85 494.11,33.34 493.35,35.75 492.29,38.04 490.99,40.20 489.50,42.23 486.97,45.05 485.14,46.79"/>
    </edge>
    <edge id=":48_4" function="internal">
        <lane id=":48_4_0" index="0" disallow="pedestrian tram rail_urban rail rail_electric rail_fast ship" speed="11.90" length="30.15" width="3.50" shape="482.80,44.19 484.41,42.66 486.65,40.17 487.94,38.42 489.06,36.58 489.96,34.64 490.60,32.64 490.96,30.58 491.02,28.50 490.78,26.42 490.25,24.38 489.48,22.38 488.50,20.46 486.67,17.66"/>
    </edge>
    <edge id=":48_5" function="internal">
        <lane id=":48_5_0" index="0" disallow="pedestrian tram rail_urban rail rail_electric rail_fast ship" speed="11.87" length="35.19" width="3.50" shape="482.80,44.19 484.79,42.51 486.93,40.98 489.23,39.63 491.69,38.55 493.03,38.13 494.39,37.82 495.78,37.64 497.19,37.59 498.61,37.68 500.00,37.91 501.37,38.28 502.68,38.78 503.93,39.39 505.12,40.08 506.26,40.87 508.29,42.59 510.13,44.50 512.53,47.54"/>
    </edge>
    <edge id=":49_0" function="internal">
        <lane id=":49_0_0" index="0" disallow="pedestrian tram rail_urban rail rail_electric rail_fast ship" speed="22.87" length="52.13" width="3.50" shape="515.82,-89.57 516.73,-85.03 517.39,-80.79 517.78,-76.49 517.86,-72.17 517.62,-67.85 517.06,-63.56 516.18,-59.32 514.96,-55.16 513.44,-51.11 511.63,-47.19 509.56,-43.41 507.25,-39.79"/>
    </edge>
    <edge id=":49_1" function="internal">
        <lane id=":49_1_0" index="0" disallow="pedestrian tram rail_urban rail rail_electric rail_fast ship" speed="18.97" length="49.72" width="3.50" shape="515.82,-89.57 516.25,-85.08 515.05,-83.29 512.23,-80.03 506.95,-74.66 497.55,-65.80 483.94,-53.57"/>
    </edge>
    <edge id=":49_2" function="internal">
        <lane id=":49_2_0" index="0" disallow="pedestrian tram rail_urban rail rail_electric rail_fast ship" speed="36.11" length="1.38" width="3.41" shape="481.61,-56.19 480.58,-55.27"/>
    </edge>
    <edge id=":49_3" function="internal">
        <lane id=":49_3_0" index="0" disallow="pedestrian tram rail_urban rail rail_electric rail_fast ship" speed="15.59" length="115.39" width="3.50" shape="481.58,-56.16 488.11,-61.87 497.97,-70.23 504.70,-75.67 511.59,-80.91 515.15,-83.43 518.83,-85.83 522.79,-88.02 527.82,-89.26 531.69,-86.24 531.39,-81.02 529.73,-76.76 527.81,-72.80 525.74,-68.96 523.59,-65.19 519.10,-57.80 514.43,-50.52 507.25,-39.79"/>
    </edge>
    <edge id=":49_4" function="internal">
        <lane id=":49_4_0" index="0" disallow="pedestrian tram rail_urban rail rail_electric rail_fast ship" speed="14.29" length="96.55" width="3.50" shape="504.35,-41.75 510.59,-51.07 514.62,-57.37 518.50,-63.76 520.35,-67.01 522.11,-70.31 523.73,-73.68 525.08,-77.16 525.56,-80.80 522.78,-82.34 519.29,-81.05 516.05,-79.21 512.92,-77.16 509.87,-74.99 503.93,-70.45 498.12,-65.75 489.56,-58.49 483.94,-53.57"/>
    </edge>
    <edge id=":49_5" function="internal">
        <lane id=":49_5_0" index="0" disallow="pedestrian tram rail_urban rail rail_electric rail_fast ship" speed="36.11" length="3.69" width="3.41" shape="504.40,-41.81 502.41,-38.70"/>
    </edge>
    <edge id=":51_0" function="internal">
        <lane id=":51_0_0" index="0" disallow="pedestrian tram rail_urban rail rail_electric rail_fast ship" speed="7.89" length="17.00" width="3.50" shape="486.26,17.09 485.51,16.10 483.16,13.22 481.51,11.46 479.73,9.88 478.84,9.24 477.91,8.71 476.99,8.33 476.13,8.16 475.40,8.20 474.75,8.42 474.10,8.87 473.44,9.62"/>
    </edge>
    <edge id=":51_1" function="internal">
        <lane id=":51_1_0" index="0" disallow="pedestrian tram rail_urban rail rail_electric rail_fast ship" speed="12.12" length="24.33" width="3.50" shape="486.26,17.09 483.48,13.08 481.59,9.95 479.96,6.69 479.06,4.43 478.42,2.09 478.22,0.89 478.13,-0.32 478.17,-1.54 478.37,-2.74 478.75,-3.89 479.31,-4.97"/>
    </edge>
    <edge id=":51_2" function="internal">
        <lane id=":51_2_0" index="0" disallow="pedestrian tram rail_urban rail rail_electric rail_fast ship" speed="10.99" length="20.21" width="3.50" shape="482.29,-3.13 481.92,-2.43 481.69,-1.65 481.60,-0.79 481.62,0.11 481.74,1.05 481.95,1.99 482.57,3.95 483.39,5.85 484.88,8.69 486.58,11.44 489.08,15.02"/>
    </edge>
    <edge id=":51_3" function="internal">
        <lane id=":51_3_0" index="0" disallow="pedestrian tram rail_urban rail rail_electric rail_fast ship" speed="36.11" length="15.52" width="3.50" shape="482.29,-3.13 479.21,1.52 473.44,9.62"/>
    </edge>
    <edge id=":51_4" function="internal">
        <lane id=":51_4_0" index="0" disallow="pedestrian tram rail_urban rail rail_electric rail_fast ship" speed="36.11" length="15.18" width="3.50" shape="470.65,7.50 476.32,-0.45 479.31,-4.97"/>
    </edge>
    <edge id=":51_5" function="internal">
        <lane id=":51_5_0" index="0" disallow="pedestrian tram rail_urban rail rail_electric rail_fast ship" speed="9.24" length="23.69" width="3.50" shape="470.65,7.50 471.62,6.37 472.75,5.42 474.07,4.76 475.51,4.46 476.99,4.56 478.40,4.97 479.74,5.61 480.99,6.41 483.27,8.29 485.35,10.40 488.18,13.82 489.08,15.02"/>
    </edge>
    <edge id=":52_0" function="internal">
        <lane id=":52_0_0" index="0" disallow="pedestrian tram rail_urban rail rail_electric rail_fast ship" speed="36.11" length="33.86" width="3.50" shape="449.08,-6.31 446.55,-13.17 444.14,-18.80 441.88,-23.38 439.37,-27.83 436.57,-32.10 434.10,-35.34 433.44,-36.13"/>
    </edge>
    <edge id=":52_1" function="internal">
        <lane id=":52_1_0" index="0" disallow="pedestrian tram rail_urban rail rail_electric rail_fast ship" speed="14.58" length="35.08" width="3.50" shape="449.08,-6.31 448.39,-8.70 448.01,-10.99 447.90,-13.32 448.05,-15.64 448.46,-17.93 449.09,-20.16 450.41,-23.39 452.09,-26.45 454.04,-29.34 456.21,-32.07 459.37,-35.49 461.05,-37.14"/>
    </edge>
    <edge id=":52_2" function="internal">
        <lane id=":52_2_0" index="0" disallow="pedestrian tram rail_urban rail rail_electric rail_fast ship" speed="13.71" length="30.91" width="3.50" shape="463.45,-34.60 461.92,-33.10 459.01,-29.95 457.03,-27.49 455.25,-24.90 453.72,-22.18 452.52,-19.33 451.95,-17.41 451.57,-15.44 451.41,-13.45 451.48,-11.47 451.79,-9.51 452.33,-7.59"/>
    </edge>
    <edge id=":52_3" function="internal">
        <lane id=":52_3_0" index="0" disallow="pedestrian tram rail_urban rail rail_electric rail_fast ship" speed="12.09" length="34.93" width="3.50" shape="463.45,-34.60 460.38,-31.96 458.17,-30.43 455.82,-29.14 453.32,-28.15 452.03,-27.80 450.71,-27.56 449.37,-27.44 448.03,-27.44 446.69,-27.58 445.37,-27.83 444.08,-28.20 442.83,-28.68 440.45,-29.91 438.24,-31.45 436.21,-33.20 433.44,-36.13"/>
    </edge>
    <edge id=":52_4" function="internal">
        <lane id=":52_4_0" index="0" disallow="pedestrian tram rail_urban rail rail_electric rail_fast ship" speed="11.08" length="29.17" width="3.50" shape="436.09,-38.42 438.51,-35.85 440.24,-34.36 442.09,-33.07 444.08,-32.04 445.07,-31.67 446.10,-31.37 447.15,-31.16 448.21,-31.06 449.28,-31.06 450.34,-31.16 451.41,-31.35 452.43,-31.62 454.52,-32.45 456.49,-33.54 458.36,-34.84 461.05,-37.14"/>
    </edge>
    <edge id=":52_5" function="internal">
        <lane id=":52_5_0" index="0" disallow="pedestrian tram rail_urban rail rail_electric rail_fast ship" speed="36.11" length="35.04" width="3.50" shape="436.09,-38.42 436.81,-37.55 439.40,-34.16 442.32,-29.72 444.94,-25.09 447.28,-20.33 449.78,-14.51 452.33,-7.59"/>
    </edge>
    <edge id=":8_0" function="internal">
        <lane id=":8_0_0" index="0" disallow="pedestrian tram rail_urban rail rail_electric rail_fast ship" speed="36.11" length="3.00" width="3.50" shape="489.73,-20.74 491.40,-23.23"/>
    </edge>

    <edge id="43337" from="48" to="51" priority="3" type="highway.residential" spreadType="center" length="0.72" shape="492.81,37.65 478.55,7.52">
        <lane id="43337_0" index="0" disallow="pedestrian tram rail_urban rail rail_electric rail_fast ship" speed="36.11" length="0.72" width="3.50" customShape="1" shape="486.67,17.66 486.47,17.38 486.25,17.08"/>
    </edge>
    <edge id="43338" from="51" to="48" priority="3" type="highway.residential" spreadType="center" length="0.73" shape="481.71,6.02 495.97,36.15">
        <lane id="43338_0" index="0" disallow="pedestrian tram rail_urban rail rail_electric rail_fast ship" speed="36.11" length="0.73" width="3.50" customShape="1" shape="489.08,15.02 489.29,15.31 489.51,15.61"/>
    </edge>
    <edge id="43340" from="41" to="39" priority="3" type="highway.residential" spreadType="center" length="69.99">
        <lane id="43340_0" index="0" disallow="pedestrian tram rail_urban rail rail_electric rail_fast ship" speed="36.11" length="69.99" width="3.50" customShape="1" shape="471.71,-126.86 468.94,-124.59 462.89,-119.29 458.21,-114.72 453.83,-109.86 444.91,-98.96 434.91,-86.34 425.83,-74.28"/>
    </edge>
    <edge id="43341" from="37" to="40" priority="3" type="highway.residential" spreadType="center" length="68.53">
        <lane id="43341_0" index="0" disallow="pedestrian tram rail_urban rail rail_electric rail_fast ship" speed="36.11" length="68.53" width="3.50" customShape="1" shape="423.87,-77.48 432.17,-88.51 442.25,-101.23 451.26,-112.25 455.74,-117.20 460.52,-121.86 466.67,-127.25 468.78,-128.98"/>
    </edge>
    <edge id="43358" from="38" to="48" priority="3" type="highway.residential" spreadType="center" length="70.03" shape="550.27,106.63 493.03,37.99">
        <lane id="43358_0" index="0" disallow="pedestrian tram rail_urban rail rail_electric rail_fast ship" speed="36.11" length="70.03" width="3.50" customShape="1" shape="550.27,106.63 509.67,49.57"/>
    </edge>
    <edge id="43359" from="48" to="24" priority="3" type="highway.residential" spreadType="center" length="69.99" shape="495.71,35.75 553.11,104.57">
        <lane id="43359_0" index="0" disallow="pedestrian tram rail_urban rail rail_electric rail_fast ship" speed="36.11" length="69.99" width="3.50" customShape="1" shape="512.53,47.54 553.11,104.57"/>
    </edge>
    <edge id="43374" from="42" to="49" priority="3" type="highway.residential" spreadType="center" length="1.71" shape="515.48,-91.25 500.28,-54.76">
        <lane id="43374_0" index="0" disallow="pedestrian tram rail_urban rail rail_electric rail_fast ship" speed="36.11" length="1.71" width="3.41" customShape="1" shape="515.48,-91.25 515.82,-89.57"/>
    </edge>
    <edge id="43376" from="8" to="49" priority="3" type="highway.residential" spreadType="center" length="22.68" shape="490.56,-21.99 497.04,-55.90">
        <lane id="43376_0" index="0" disallow="pedestrian tram rail_urban rail rail_electric rail_fast ship" speed="36.11" length="22.68" width="3.50" customShape="1" shape="491.40,-23.23 494.29,-27.52 504.40,-41.81"/>
    </edge>
    <edge id="43377" from="49" to="45" priority="3" type="highway.residential" spreadType="center" length="22.59" shape="500.47,-55.22 493.47,-20.04">
        <lane id="43377_0" index="0" disallow="pedestrian tram rail_urban rail rail_electric rail_fast ship" speed="36.11" length="22.59" width="3.50" customShape="1" shape="507.25,-39.79 497.18,-25.54 494.31,-21.28"/>
    </edge>
    <edge id="43435" from="52" to="29" priority="3" type="highway.residential" spreadType="center" length="12.49" shape="448.13,-25.36 424.30,-46.86">
        <lane id="43435_0" index="0" disallow="pedestrian tram rail_urban rail rail_electric rail_fast ship" speed="36.11" length="12.49" width="3.50" customShape="1" shape="433.44,-36.13 428.89,-41.47 425.34,-45.64"/>
    </edge>
    <edge id="43436" from="36" to="52" priority="3" type="highway.residential" spreadType="center" length="12.44" shape="427.00,-49.10 450.47,-27.95">
        <lane id="43436_0" index="0" disallow="pedestrian tram rail_urban rail rail_electric rail_fast ship" speed="36.11" length="12.44" width="3.50" customShape="1" shape="428.04,-47.87 431.55,-43.74 436.11,-38.40"/>
    </edge>
    <edge id="43458" from="47" to="51" priority="3" type="highway.residential" spreadType="center" length="0.19" shape="459.78,11.36 479.79,5.15">
        <lane id="43458_0" index="0" disallow="pedestrian tram rail_urban rail rail_electric rail_fast ship" speed="36.11" length="0.19" width="3.50" customShape="1" shape="470.54,7.65 470.65,7.50"/>
    </edge>
    <edge id="43459" from="51" to="47" priority="3" type="highway.residential" spreadType="center" length="0.20" shape="480.83,8.47 460.81,14.70">
        <lane id="43459_0" index="0" disallow="pedestrian tram rail_urban rail rail_electric rail_fast ship" speed="36.11" length="0.20" width="3.50" customShape="1" shape="473.44,9.62 473.32,9.78"/>
    </edge>
    <edge id="43461" from="32" to="47" priority="3" type="highway.residential" spreadType="center" length="70.11" shape="397.48,70.56 459.11,11.74">
        <lane id="43461_0" index="0" disallow="pedestrian tram rail_urban rail rail_electric rail_fast ship" speed="36.11" length="70.11" width="3.50" customShape="1" shape="397.48,70.56 408.49,62.44 424.22,50.73 439.32,39.02 447.11,32.66 452.82,27.56"/>
    </edge>
    <edge id="43462" from="47" to="16" priority="3" type="highway.residential" spreadType="center" length="70.00" shape="461.53,14.27 399.91,73.12">
        <lane id="43462_0" index="0" disallow="pedestrian tram rail_urban rail rail_electric rail_fast ship" speed="36.11" length="70.00" width="3.50" customShape="1" shape="455.15,30.17 449.44,35.27 441.59,41.68 426.44,53.43 410.67,65.18 399.91,73.12"/>
    </edge>
    <edge id="43494" from="52" to="49" priority="3" type="highway.residential" spreadType="center" length="28.03" shape="448.30,-28.21 497.86,-56.99">
        <lane id="43494_0" index="0" disallow="pedestrian tram rail_urban rail rail_electric rail_fast ship" speed="36.11" length="28.03" width="3.50" customShape="1" shape="461.05,-37.14 471.05,-46.57 481.61,-56.19"/>
    </edge>
    <edge id="43495" from="49" to="52" priority="3" type="highway.residential" spreadType="center" length="27.94" shape="499.62,-53.97 450.06,-25.18">
        <lane id="43495_0" index="0" disallow="pedestrian tram rail_urban rail rail_electric rail_fast ship" speed="36.11" length="27.94" width="3.50" customShape="1" shape="483.94,-53.57 473.42,-44.00 463.44,-34.59"/>
    </edge>
    <edge id="43497" from="47" to="52" priority="3" type="highway.residential" spreadType="center" length="9.86" shape="458.61,13.50 447.53,-26.32">
        <lane id="43497_0" index="0" disallow="pedestrian tram rail_urban rail rail_electric rail_fast ship" speed="36.11" length="9.86" width="3.50" customShape="1" shape="453.56,2.44 452.07,0.09 450.24,-3.35 449.08,-6.31"/>
    </edge>
    <edge id="43498" from="52" to="47" priority="3" type="highway.residential" spreadType="center" length="9.19" shape="450.89,-27.26 461.98,12.56">
        <lane id="43498_0" index="0" disallow="pedestrian tram rail_urban rail rail_electric rail_fast ship" speed="36.11" length="9.19" width="3.50" customShape="1" shape="452.33,-7.59 453.43,-4.79 455.10,-1.66 456.51,0.56"/>
    </edge>
    <edge id="43501" from="45" to="51" priority="3" type="highway.residential" spreadType="center" length="18.83" shape="493.47,-20.04 481.74,7.63">
        <lane id="43501_0" index="0" disallow="pedestrian tram rail_urban rail rail_electric rail_fast ship" speed="36.11" length="18.83" width="3.50" customShape="1" shape="492.64,-18.79 482.97,-4.19 482.40,-3.30 482.26,-3.08"/>
    </edge>
    <edge id="43533" from="34" to="48" priority="3" type="highway.residential" spreadType="center" length="43.59" shape="450.40,73.35 493.27,35.55">
        <lane id="43533_0" index="0" disallow="pedestrian tram rail_urban rail rail_electric rail_fast ship" speed="36.11" length="43.59" width="3.50" customShape="1" shape="450.40,73.35 466.60,58.77 482.80,44.19"/>
    </edge>
    <edge id="43534" from="48" to="26" priority="3" type="highway.residential" spreadType="center" length="43.60" shape="495.59,38.17 452.74,75.96">
        <lane id="43534_0" index="0" disallow="pedestrian tram rail_urban rail rail_electric rail_fast ship" speed="36.11" length="43.60" width="3.50" customShape="1" shape="485.14,46.79 468.94,61.37 452.74,75.96"/>
    </edge>
    <edge id="43628" from="29" to="37" priority="3" type="highway.residential" spreadType="center" length="29.14">
        <lane id="43628_0" index="0" disallow="pedestrian tram rail_urban rail rail_electric rail_fast ship" speed="36.11" length="29.14" width="3.50" customShape="1" shape="423.33,-48.13 422.12,-49.71 420.82,-51.80 419.70,-54.01 418.82,-56.35 418.21,-58.80 417.92,-61.31 417.96,-63.85 418.32,-66.34 418.98,-68.76 419.90,-71.07 421.03,-73.28 422.18,-75.07"/>
    </edge>
    <edge id="43682" from="51" to="8" priority="3" type="highway.residential" spreadType="center" length="18.90" shape="478.52,6.26 490.56,-21.99">
        <lane id="43682_0" index="0" disallow="pedestrian tram rail_urban rail rail_electric rail_fast ship" speed="36.11" length="18.90" width="3.50" customShape="1" shape="479.31,-4.97 479.38,-5.08 479.45,-5.18 480.03,-6.09 489.73,-20.74"/>
    </edge>
    <edge id="43747" from="49" to="50" priority="3" type="highway.residential" spreadType="center" length="49.37" shape="497.20,-56.21 513.14,-85.77">
        <lane id="43747_0" index="0" disallow="pedestrian tram rail_urban rail rail_electric rail_fast ship" speed="36.11" length="49.37" width="3.41" customShape="1" shape="502.41,-38.70 506.54,-45.18 508.50,-48.75 510.21,-52.45 511.64,-56.26 512.78,-60.17 513.61,-64.15 514.14,-68.19 514.36,-72.26 514.28,-76.33 513.92,-80.38 513.29,-84.41 513.18,-85.37"/>
    </edge>
    <edge id="43805" from="39" to="36" priority="3" type="highway.residential" spreadType="center" length="25.99">
        <lane id="43805_0" index="0" disallow="pedestrian tram rail_urban rail rail_electric rail_fast ship" speed="36.11" length="25.99" width="3.50" customShape="1" shape="425.83,-74.28 424.10,-71.61 423.14,-69.72 422.36,-67.74 421.80,-65.69 421.49,-63.59 421.46,-61.47 421.71,-59.36 422.22,-57.30 422.98,-55.32 423.93,-53.42 425.06,-51.62 426.02,-50.37"/>
    </edge>
    <edge id="43833" from="49" to="50" priority="3" type="highway.residential" spreadType="center" length="42.79">
        <lane id="43833_0" index="0" disallow="pedestrian tram rail_urban rail rail_electric rail_fast ship" speed="36.11" length="42.79" width="3.41" customShape="1" shape="480.58,-55.27 494.76,-67.94 503.88,-76.38 509.05,-81.41 511.87,-84.43"/>
    </edge>

    <junction id="16" type="dead_end" x="399.91" y="73.12" incLanes="43462_0" intLanes="" shape="400.95,74.53 398.87,71.71" rightOfWay="edgePriority"/>
    <junction id="24" type="dead_end" x="553.11" y="104.57" incLanes="43359_0" intLanes="" shape="554.54,103.56 551.68,105.59" rightOfWay="edgePriority"/>
    <junction id="26" type="dead_end" x="452.74" y="75.96" incLanes="43534_0" intLanes="" shape="453.91,77.26 451.57,74.66" rightOfWay="edgePriority"/>
    <junction id="29" type="priority" x="424.30" y="-46.86" incLanes="43435_0" intLanes=":29_0_0" shape="424.01,-44.50 426.67,-46.77 424.72,-49.20 421.94,-47.07" rightOfWay="edgePriority">
        <request index="0" response="0" foes="0" cont="0"/>
    </junction>
    <junction id="32" type="dead_end" x="397.48" y="70.56" incLanes="" intLanes="" shape="398.51,71.97 396.44,69.16" rightOfWay="edgePriority"/>
    <junction id="34" type="dead_end" x="450.40" y="73.35" incLanes="" intLanes="" shape="451.57,74.65 449.23,72.05" rightOfWay="edgePriority"/>