<routes>
	<vehicle depart="0.1" departLane="0" departPos="3.6089820300581446" departSpeed="4.2521919" id="37" type="bicycle">
		<route edges=":52_1 43494"/>
	</vehicle>
	<vehicle depart="0.1" departLane="0" departPos="61.895125349055405" departSpeed="3.8697881" id="39" type="bicycle">
		<route edges="43461 43458 43338"/>
	</vehicle>
	<vehicle depart="0.1" departLane="0" departPos="4.7754740900343915" departSpeed="1.6967047" id="34" type="passenger">
		<route edges=":51_5 43338"/>
	</vehicle>
	<vehicle depart="0.1" departLane="0" departPos="16.64696067222085" departSpeed="3.2626531" id="35" type="passenger">
		<route edges=":51_5 43338 43534"/>
	</vehicle>
	<vehicle depart="0.1" departLane="0" departPos="43.49299173402106" departSpeed="0.0" id="317" type="passenger">
		<route edges="43533 43337"/>
	</vehicle>
	<vehicle depart="0.1" departLane="0" departPos="10.789361884712259" departSpeed="0.58334302" id="329" type="passenger">
		<route edges=":47_5 43458"/>
	</vehicle>
	<vehicle depart="0.1" departLane="0" departPos="20.38722128885612" departSpeed="1.8049553" id="332" type="passenger">
		<route edges="43461 43458"/>
	</vehicle>
	<vehicle depart="0.1" departLane="0" departPos="55.52776923912768" departSpeed="0.30381093" id="336" type="passenger">
		<route edges="43461 43458"/>
	</vehicle>
	<vehicle depart="0.1" departLane="0" departPos="33.000830279349756" departSpeed="1.722038" id="338" type="passenger">
		<route edges="43461 43458"/>
	</vehicle>
	<vehicle depart="0.1" departLane="0" departPos="40.07904635695663" departSpeed="0.0" id="30" type="truck">
		<route edges=":48_1 43337"/>
	</vehicle>
</routes>
