<routes>
	<vehicle depart="0.1" departLane="0" departPos="28.592133293297803" departSpeed="8.9809524" id="363" type="passenger">
		<route edges=":102_3 89343 90049"/>
	</vehicle>
	<vehicle depart="0.1" departLane="0" departPos="6.968086600568313" departSpeed="3.6560555" id="374" type="passenger">
		<route edges=":102_1 90242"/>
	</vehicle>
	<vehicle depart="0.1" departLane="0" departPos="16.724106838112757" departSpeed="0.48094632" id="390" type="passenger">
		<route edges=":112_0 90711"/>
	</vehicle>
</routes>
