<!-- generated on Tue Feb  9 22:14:04 2021 by Eclipse SUMO netconvert Version 1.8.0
<configuration xmlns:xsi="http://www.w3.org/2001/XMLSchema-instance" xsi:noNamespaceSchemaLocation="http://sumo.dlr.de/xsd/netconvertConfiguration.xsd">

    <input>
        <node-files value="./converted_scenarios/scenario-factory/ITA_Foggia-13_1_I-1-1/ITA_Foggia-13_1_I-1-1.nod.xml"/>
        <edge-files value="./converted_scenarios/scenario-factory/ITA_Foggia-13_1_I-1-1/ITA_Foggia-13_1_I-1-1.edg.xml"/>
        <connection-files value="./converted_scenarios/scenario-factory/ITA_Foggia-13_1_I-1-1/ITA_Foggia-13_1_I-1-1.con.xml"/>
        <tllogic-files value="./converted_scenarios/scenario-factory/ITA_Foggia-13_1_I-1-1/ITA_Foggia-13_1_I-1-1.tll.xml"/>
        <type-files value="/home/zen/commonroad-interactive-benchmarks/install/commonroad-map-tool/crmapconverter/sumo_map/templates/DEU.typ.xml"/>
    </input>

    <output>
        <output-file value="./converted_scenarios/scenario-factory/ITA_Foggia-13_1_I-1-1/ITA_Foggia-13_1_I-1-1.net.xml"/>
    </output>

    <processing>
        <geometry.remove.keep-edges.explicit value="true"/>
        <geometry.avoid-overlap value="true"/>
        <offset.disable-normalization value="true"/>
    </processing>

    <junctions>
        <no-turnarounds value="true"/>
        <junctions.internal-link-detail value="20"/>
    </junctions>

    <report>
        <aggregate-warnings value="5"/>
    </report>

    <random_number>
        <seed value="1234"/>
    </random_number>

</configuration>
--><net xmlns:xsi="http://www.w3.org/2001/XMLSchema-instance" version="1.6" junctionCornerDetail="5" junctionLinkDetail="20" limitTurnSpeed="5.50" xsi:noNamespaceSchemaLocation="http://sumo.dlr.de/xsd/net_file.xsd">

    <location netOffset="0.00,0.00" convBoundary="-1008.19,-927.51,-691.42,-565.94" origBoundary="-1008.19,-927.51,-691.42,-565.94" projParameter="!"/>

    <type id="highway.bridleway" priority="1" speed="2.78" allow="pedestrian" oneway="1" width="2.00"/>
    <type id="highway.bus_guideway" priority="1" speed="27.78" allow="bus" oneway="1"/>
    <type id="highway.cycleway" priority="1" speed="8.33" allow="bicycle" oneway="0" width="1.00"/>
    <type id="highway.footway" priority="1" speed="2.78" allow="pedestrian" oneway="1" width="2.00"/>
    <type id="highway.ford" priority="1" speed="2.78" allow="army" oneway="0"/>
    <type id="highway.living_street" priority="2" speed="2.78" disallow="tram rail_urban rail rail_electric rail_fast ship" oneway="0"/>
    <type id="highway.motorway" priority="14" speed="39.44" allow="private emergency authority army vip passenger hov taxi bus coach delivery truck trailer motorcycle evehicle custom1 custom2" oneway="1"/>
    <type id="highway.motorway_link" priority="9" speed="22.22" allow="private emergency authority army vip passenger hov taxi bus coach delivery truck trailer motorcycle evehicle custom1 custom2" oneway="1"/>
    <type id="highway.path" priority="1" speed="2.78" allow="pedestrian bicycle" oneway="0" width="2.00"/>
    <type id="highway.pedestrian" priority="1" speed="2.78" allow="pedestrian" oneway="1" width="2.00"/>
    <type id="highway.primary" priority="12" speed="27.78" disallow="pedestrian tram rail_urban rail rail_electric rail_fast ship" oneway="0"/>
    <type id="highway.primary_link" priority="7" speed="22.22" disallow="pedestrian tram rail_urban rail rail_electric rail_fast ship" oneway="0"/>
    <type id="highway.raceway" priority="15" speed="83.33" allow="vip" oneway="0"/>
    <type id="highway.residential" priority="3" speed="13.89" disallow="pedestrian tram rail_urban rail rail_electric rail_fast ship" oneway="0"/>
    <type id="highway.secondary" priority="11" speed="27.78" disallow="pedestrian tram rail_urban rail rail_electric rail_fast ship" oneway="0"/>
    <type id="highway.secondary_link" priority="6" speed="22.22" disallow="pedestrian tram rail_urban rail rail_electric rail_fast ship" oneway="0"/>
    <type id="highway.service" priority="1" speed="5.56" allow="pedestrian delivery bicycle" oneway="0"/>
    <type id="highway.stairs" priority="1" speed="1.39" allow="pedestrian" oneway="1" width="2.00"/>
    <type id="highway.step" priority="1" speed="1.39" allow="pedestrian" oneway="1" width="2.00"/>
    <type id="highway.steps" priority="1" speed="1.39" allow="pedestrian" oneway="1" width="2.00"/>
    <type id="highway.tertiary" priority="10" speed="22.22" disallow="pedestrian tram rail_urban rail rail_electric rail_fast ship" oneway="0"/>
    <type id="highway.tertiary_link" priority="5" speed="22.22" disallow="pedestrian tram rail_urban rail rail_electric rail_fast ship" oneway="0"/>
    <type id="highway.track" priority="1" speed="5.56" allow="pedestrian motorcycle moped bicycle" oneway="0"/>
    <type id="highway.trunk" priority="13" speed="27.78" disallow="pedestrian bicycle tram rail_urban rail rail_electric rail_fast ship" oneway="0"/>
    <type id="highway.trunk_link" priority="8" speed="22.22" disallow="pedestrian bicycle tram rail_urban rail rail_electric rail_fast ship" oneway="0"/>
    <type id="highway.unclassified" priority="4" speed="13.89" disallow="pedestrian tram rail_urban rail rail_electric rail_fast ship" oneway="0"/>
    <type id="highway.unsurfaced" priority="1" speed="8.33" disallow="tram rail_urban rail rail_electric rail_fast ship" oneway="0"/>
    <type id="railway.highspeed" priority="21" speed="69.44" allow="rail_fast" oneway="1"/>
    <type id="railway.light_rail" priority="19" speed="27.78" allow="rail_urban" oneway="1"/>
    <type id="railway.preserved" priority="16" speed="27.78" allow="rail" oneway="1"/>
    <type id="railway.rail" priority="20" speed="44.44" allow="rail" oneway="1"/>
    <type id="railway.subway" priority="18" speed="27.78" allow="rail_urban" oneway="1"/>
    <type id="railway.tram" priority="17" speed="13.89" allow="tram" oneway="1"/>

    <edge id=":100_0" function="internal">
        <lane id=":100_0_0" index="0" disallow="pedestrian tram rail_urban rail rail_electric rail_fast ship" speed="11.92" length="30.49" width="3.50" shape="-811.05,-739.19 -812.37,-740.98 -814.59,-743.55 -816.18,-745.07 -817.89,-746.43 -819.72,-747.58 -821.65,-748.49 -823.67,-749.11 -825.75,-749.43 -827.86,-749.46 -829.99,-749.19 -832.09,-748.66 -834.14,-747.92 -837.17,-746.44"/>
    </edge>
    <edge id=":100_1" function="internal">
        <lane id=":100_1_0" index="0" disallow="pedestrian tram rail_urban rail rail_electric rail_fast ship" speed="36.11" length="41.45" width="3.50" shape="-811.05,-739.19 -816.95,-747.87 -822.62,-756.75 -826.35,-763.15 -828.81,-767.89 -830.53,-771.87 -831.54,-775.05"/>
    </edge>
    <edge id=":100_2" function="internal">
        <lane id=":100_2_0" index="0" disallow="pedestrian tram rail_urban rail rail_electric rail_fast ship" speed="11.91" length="35.09" width="3.50" shape="-811.05,-739.19 -813.10,-742.47 -814.29,-744.83 -815.24,-747.33 -815.87,-749.94 -816.06,-751.34 -816.11,-752.73 -816.04,-754.13 -815.83,-755.53 -815.48,-756.90 -815.00,-758.22 -814.39,-759.49 -813.67,-760.69 -812.85,-761.83 -811.04,-763.81 -809.02,-765.56 -806.86,-767.07 -804.64,-768.38"/>
    </edge>
    <edge id=":100_3" function="internal">
        <lane id=":100_3_0" index="0" disallow="pedestrian tram rail_urban rail rail_electric rail_fast ship" speed="10.88" length="29.11" width="3.50" shape="-802.96,-765.31 -804.88,-764.18 -806.71,-762.89 -808.41,-761.43 -809.91,-759.77 -810.56,-758.86 -811.14,-757.90 -811.62,-756.89 -812.00,-755.83 -812.27,-754.75 -812.44,-753.64 -812.49,-752.52 -812.44,-751.40 -812.30,-750.29 -811.76,-748.12 -810.96,-746.02 -809.95,-744.02 -808.17,-741.17"/>
    </edge>
    <edge id=":100_4" function="internal">
        <lane id=":100_4_0" index="0" disallow="pedestrian tram rail_urban rail rail_electric rail_fast ship" speed="36.11" length="39.07" width="3.50" shape="-802.96,-765.31 -834.45,-747.96 -837.17,-746.44"/>
    </edge>
    <edge id=":100_5" function="internal">
        <lane id=":100_5_0" index="0" disallow="pedestrian tram rail_urban rail rail_electric rail_fast ship" speed="11.46" length="37.01" width="3.50" shape="-802.96,-765.31 -805.36,-764.08 -809.09,-762.50 -811.73,-761.66 -814.45,-761.09 -815.90,-760.93 -817.34,-760.89 -818.81,-760.98 -820.28,-761.23 -821.73,-761.65 -823.13,-762.24 -824.44,-763.01 -825.64,-763.93 -826.71,-764.97 -827.66,-766.10 -828.50,-767.32 -829.81,-769.81 -830.81,-772.42 -831.54,-775.05"/>
    </edge>
    <edge id=":100_6" function="internal">
        <lane id=":100_6_0" index="0" disallow="pedestrian tram rail_urban rail rail_electric rail_fast ship" speed="10.40" length="30.23" width="3.50" shape="-828.10,-775.73 -827.51,-773.62 -826.67,-771.44 -825.56,-769.38 -824.89,-768.43 -824.13,-767.54 -823.27,-766.74 -822.33,-766.05 -821.31,-765.48 -820.22,-765.05 -819.09,-764.75 -817.93,-764.58 -816.76,-764.53 -815.60,-764.58 -814.43,-764.72 -812.15,-765.22 -809.92,-765.94 -806.70,-767.32 -804.64,-768.38"/>
    </edge>
    <edge id=":100_7" function="internal">
        <lane id=":100_7_0" index="0" disallow="pedestrian tram rail_urban rail rail_electric rail_fast ship" speed="36.11" length="40.03" width="3.50" shape="-828.10,-775.73 -827.20,-772.93 -825.55,-769.16 -823.17,-764.59 -819.52,-758.37 -813.97,-749.69 -808.17,-741.17"/>
    </edge>
    <edge id=":100_8" function="internal">
        <lane id=":100_8_0" index="0" disallow="pedestrian tram rail_urban rail rail_electric rail_fast ship" speed="13.72" length="33.21" width="3.50" shape="-828.11,-775.73 -827.40,-772.24 -826.93,-768.57 -826.80,-764.87 -826.94,-762.40 -827.30,-759.96 -827.91,-757.57 -828.79,-755.26 -829.97,-753.09 -831.43,-751.10 -833.14,-749.32 -835.06,-747.77 -837.17,-746.44"/>
    </edge>
    <edge id=":100_9" function="internal">
        <lane id=":100_9_0" index="0" disallow="pedestrian tram rail_urban rail rail_electric rail_fast ship" speed="12.80" length="28.80" width="3.50" shape="-838.88,-749.49 -837.09,-750.63 -835.47,-751.94 -834.05,-753.44 -832.86,-755.12 -831.90,-756.96 -831.18,-758.92 -830.69,-760.97 -830.40,-763.08 -830.30,-765.23 -830.44,-768.52 -830.88,-771.80 -831.54,-775.05"/>
    </edge>
    <edge id=":100_10" function="internal">
        <lane id=":100_10_0" index="0" disallow="pedestrian tram rail_urban rail rail_electric rail_fast ship" speed="36.11" length="39.11" width="3.50" shape="-838.88,-749.49 -836.16,-751.01 -804.64,-768.38"/>
    </edge>
    <edge id=":100_11" function="internal">
        <lane id=":100_11_0" index="0" disallow="pedestrian tram rail_urban rail rail_electric rail_fast ship" speed="12.88" length="35.73" width="3.50" shape="-838.88,-749.49 -835.42,-751.19 -833.02,-752.06 -830.55,-752.68 -828.02,-753.01 -825.47,-752.99 -822.95,-752.62 -820.51,-751.88 -818.20,-750.80 -816.04,-749.45 -814.04,-747.87 -812.19,-746.12 -809.68,-743.23 -808.17,-741.17"/>
    </edge>
    <edge id=":101_0" function="internal">
        <lane id=":101_0_0" index="0" disallow="pedestrian tram rail_urban rail rail_electric rail_fast ship" speed="11.38" length="27.75" width="3.50" shape="-865.48,-708.69 -866.12,-709.57 -868.23,-712.22 -870.54,-714.63 -872.18,-716.05 -873.93,-717.30 -875.78,-718.32 -877.75,-719.07 -878.71,-719.32 -879.71,-719.49 -880.73,-719.57 -881.74,-719.57 -882.72,-719.49 -884.78,-719.07 -886.75,-718.35 -888.68,-717.36"/>
    </edge>
    <edge id=":101_1" function="internal">
        <lane id=":101_1_0" index="0" disallow="pedestrian tram rail_urban rail rail_electric rail_fast ship" speed="11.93" length="35.27" width="3.50" shape="-865.48,-708.69 -867.57,-711.97 -868.78,-714.35 -869.75,-716.86 -870.40,-719.47 -870.59,-720.88 -870.65,-722.28 -870.58,-723.69 -870.38,-725.10 -870.03,-726.47 -869.55,-727.81 -868.94,-729.08 -868.23,-730.28 -867.41,-731.44 -865.62,-733.44 -863.60,-735.21 -861.45,-736.76 -859.23,-738.10"/>
    </edge>
    <edge id=":101_2" function="internal">
        <lane id=":101_2_0" index="0" disallow="pedestrian tram rail_urban rail rail_electric rail_fast ship" speed="10.91" length="29.32" width="3.50" shape="-857.50,-735.06 -859.43,-733.89 -861.26,-732.58 -862.96,-731.09 -864.46,-729.40 -865.11,-728.48 -865.68,-727.51 -866.16,-726.49 -866.54,-725.43 -866.82,-724.34 -866.98,-723.22 -867.03,-722.09 -866.97,-720.97 -866.82,-719.85 -866.28,-717.66 -865.46,-715.56 -864.43,-713.55 -862.62,-710.70"/>
    </edge>
    <edge id=":101_3" function="internal">
        <lane id=":101_3_0" index="0" disallow="pedestrian tram rail_urban rail rail_electric rail_fast ship" speed="36.11" length="35.85" width="3.50" shape="-857.50,-735.06 -886.00,-718.91 -888.68,-717.36"/>
    </edge>
    <edge id=":101_4" function="internal">
        <lane id=":101_4_0" index="0" disallow="pedestrian tram rail_urban rail rail_electric rail_fast ship" speed="36.11" length="35.89" width="3.50" shape="-890.44,-720.38 -887.74,-721.94 -859.23,-738.10"/>
    </edge>
    <edge id=":101_5" function="internal">
        <lane id=":101_5_0" index="0" disallow="pedestrian tram rail_urban rail rail_electric rail_fast ship" speed="12.39" length="33.01" width="3.50" shape="-890.45,-720.38 -888.15,-721.56 -885.77,-722.44 -883.30,-722.99 -882.04,-723.12 -880.77,-723.14 -879.50,-723.06 -878.25,-722.87 -877.02,-722.58 -874.64,-721.71 -872.40,-720.52 -870.32,-719.07 -868.39,-717.43 -865.74,-714.69 -863.36,-711.73 -862.62,-710.70"/>
    </edge>
    <edge id=":102_0" function="internal">
        <lane id=":102_0_0" index="0" disallow="pedestrian tram rail_urban rail rail_electric rail_fast ship" speed="8.43" length="15.12" width="3.50" shape="-769.57,-677.61 -771.50,-679.79 -773.24,-681.31 -775.18,-682.57 -776.76,-683.28 -778.42,-683.76 -780.14,-683.99 -781.88,-683.97 -782.52,-683.87"/>
    </edge>
    <edge id=":102_1" function="internal">
        <lane id=":102_1_0" index="0" disallow="pedestrian tram rail_urban rail rail_electric rail_fast ship" speed="36.11" length="32.96" width="3.50" shape="-769.57,-677.60 -779.24,-690.29 -787.34,-701.47 -789.17,-704.10"/>
    </edge>
    <edge id=":102_2" function="internal">
        <lane id=":102_2_0" index="0" disallow="pedestrian tram rail_urban rail rail_electric rail_fast ship" speed="8.75" length="17.20" width="3.50" shape="-769.57,-677.60 -770.91,-679.56 -771.95,-681.66 -772.49,-683.34 -772.77,-685.07 -772.78,-686.83 -772.53,-688.57 -772.02,-690.26 -771.04,-692.39 -770.32,-693.52"/>
    </edge>
    <edge id=":102_3" function="internal">
        <lane id=":102_3_0" index="0" disallow="pedestrian tram rail_urban rail rail_electric rail_fast ship" speed="8.41" length="16.48" width="3.50" shape="-786.29,-706.08 -784.12,-703.26 -782.05,-701.12 -780.20,-699.63 -778.16,-698.42 -776.51,-697.76 -774.77,-697.34 -773.14,-697.22"/>
    </edge>
    <edge id=":102_4" function="internal">
        <lane id=":102_4_0" index="0" disallow="pedestrian tram rail_urban rail rail_electric rail_fast ship" speed="36.11" length="32.73" width="3.50" shape="-786.29,-706.08 -784.48,-703.49 -776.43,-692.37 -766.82,-679.77"/>
    </edge>
    <edge id=":102_5" function="internal">
        <lane id=":102_5_0" index="0" disallow="pedestrian tram rail_urban rail rail_electric rail_fast ship" speed="9.61" length="20.51" width="3.50" shape="-786.29,-706.08 -784.75,-703.62 -783.49,-701.01 -782.74,-698.82 -782.30,-696.54 -782.21,-694.23 -782.51,-691.93 -783.20,-689.72 -784.23,-687.64 -784.69,-686.98"/>
    </edge>
    <edge id=":103_0" function="internal">
        <lane id=":103_0_0" index="0" disallow="pedestrian tram rail_urban rail rail_electric rail_fast ship" speed="36.11" length="31.55" width="3.50" shape="-888.88,-717.25 -911.53,-703.90 -916.04,-701.19"/>
    </edge>
    <edge id=":103_1" function="internal">
        <lane id=":103_1_0" index="0" disallow="pedestrian tram rail_urban rail rail_electric rail_fast ship" speed="12.45" length="32.71" width="3.50" shape="-888.88,-717.25 -890.00,-716.64 -892.32,-715.64 -894.80,-714.95 -897.34,-714.64 -898.72,-714.64 -901.26,-714.96 -903.74,-715.66 -906.08,-716.69 -908.24,-717.95 -910.25,-719.41 -912.12,-721.01 -914.68,-723.58 -917.03,-726.35"/>
    </edge>
    <edge id=":103_2" function="internal">
        <lane id=":103_2_0" index="0" disallow="pedestrian tram rail_urban rail rail_electric rail_fast ship" speed="11.49" length="27.68" width="3.50" shape="-914.28,-728.51 -912.21,-726.07 -909.97,-723.80 -908.36,-722.40 -906.65,-721.13 -904.83,-720.02 -902.90,-719.13 -900.86,-718.51 -898.76,-718.20 -897.69,-718.18 -895.58,-718.39 -893.52,-718.94 -891.56,-719.77 -890.63,-720.28"/>
    </edge>
    <edge id=":103_3" function="internal">
        <lane id=":103_3_0" index="0" disallow="pedestrian tram rail_urban rail rail_electric rail_fast ship" speed="11.46" length="32.32" width="3.50" shape="-914.28,-728.51 -911.80,-725.10 -910.34,-722.70 -909.11,-720.17 -908.19,-717.52 -907.88,-716.15 -907.69,-714.75 -907.64,-713.35 -907.75,-711.95 -908.02,-710.57 -908.46,-709.24 -909.06,-707.96 -909.79,-706.76 -910.64,-705.64 -911.59,-704.61 -913.71,-702.77 -916.04,-701.19"/>
    </edge>
    <edge id=":103_4" function="internal">
        <lane id=":103_4_0" index="0" disallow="pedestrian tram rail_urban rail rail_electric rail_fast ship" speed="10.39" length="26.29" width="3.50" shape="-917.87,-704.18 -915.91,-705.50 -914.17,-707.03 -913.45,-707.84 -912.80,-708.72 -912.25,-709.65 -911.82,-710.62 -911.51,-711.63 -911.33,-712.68 -911.27,-713.75 -911.33,-714.84 -911.50,-715.94 -911.76,-717.01 -912.55,-719.22 -913.61,-721.33 -914.86,-723.37 -917.03,-726.35"/>
    </edge>
    <edge id=":103_5" function="internal">
        <lane id=":103_5_0" index="0" disallow="pedestrian tram rail_urban rail rail_electric rail_fast ship" speed="36.11" length="31.64" width="3.50" shape="-917.87,-704.18 -913.32,-706.91 -890.63,-720.28"/>
    </edge>
    <edge id=":104_0" function="internal">
        <lane id=":104_0_0" index="0" disallow="pedestrian tram rail_urban rail rail_electric rail_fast ship" speed="11.39" length="28.25" width="3.50" shape="-816.88,-641.00 -818.35,-642.61 -819.94,-644.09 -821.68,-645.40 -823.56,-646.49 -825.58,-647.30 -826.63,-647.59 -827.70,-647.79 -828.78,-647.91 -829.87,-647.94 -832.03,-647.75 -834.15,-647.27 -836.20,-646.55 -838.17,-645.62 -840.98,-643.95 -841.84,-643.35"/>
    </edge>
    <edge id=":104_1" function="internal">
        <lane id=":104_1_0" index="0" disallow="pedestrian tram rail_urban rail rail_electric rail_fast ship" speed="36.11" length="37.01" width="3.50" shape="-816.88,-641.00 -823.56,-649.20 -830.61,-658.46 -837.37,-667.92 -839.16,-670.54"/>
    </edge>
    <edge id=":104_2" function="internal">
        <lane id=":104_2_0" index="0" disallow="pedestrian tram rail_urban rail rail_electric rail_fast ship" speed="8.05" length="15.31" width="3.50" shape="-818.75,-657.24 -819.07,-655.67 -819.15,-653.88 -818.93,-652.11 -818.47,-650.38 -817.54,-648.18 -816.02,-645.63 -814.21,-643.26"/>
    </edge>
    <edge id=":104_3" function="internal">
        <lane id=":104_3_0" index="0" disallow="pedestrian tram rail_urban rail rail_electric rail_fast ship" speed="36.11" length="26.92" width="3.50" shape="-820.44,-659.68 -837.79,-646.31 -841.84,-643.35"/>
    </edge>
    <edge id=":104_4" function="internal">
        <lane id=":104_4_0" index="0" disallow="pedestrian tram rail_urban rail rail_electric rail_fast ship" speed="9.57" length="20.75" width="3.50" shape="-821.81,-661.65 -821.92,-661.62 -824.26,-661.38 -826.62,-661.51 -828.35,-661.86 -830.57,-662.66 -832.63,-663.81 -834.52,-665.22 -836.63,-667.28 -838.48,-669.58 -839.16,-670.54"/>
    </edge>
    <edge id=":104_5" function="internal">
        <lane id=":104_5_0" index="0" disallow="pedestrian tram rail_urban rail rail_electric rail_fast ship" speed="36.11" length="36.65" width="3.50" shape="-836.27,-672.51 -834.50,-669.92 -827.80,-660.54 -820.81,-651.37 -814.21,-643.26"/>
    </edge>
    <edge id=":104_6" function="internal">
        <lane id=":104_6_0" index="0" disallow="pedestrian tram rail_urban rail rail_electric rail_fast ship" speed="12.26" length="33.79" width="3.50" shape="-836.27,-672.52 -834.92,-670.37 -833.74,-668.11 -832.78,-665.72 -832.09,-663.19 -831.75,-660.60 -831.74,-659.23 -831.84,-657.89 -832.05,-656.56 -832.37,-655.25 -832.82,-653.95 -833.95,-651.59 -835.40,-649.41 -837.08,-647.45 -838.92,-645.67 -841.84,-643.35"/>
    </edge>
    <edge id=":104_7" function="internal">
        <lane id=":104_7_0" index="0" disallow="pedestrian tram rail_urban rail rail_electric rail_fast ship" speed="11.26" length="28.33" width="3.50" shape="-843.91,-646.17 -841.34,-648.21 -839.77,-649.72 -838.36,-651.37 -837.15,-653.19 -836.20,-655.15 -835.85,-656.18 -835.58,-657.23 -835.41,-658.31 -835.32,-659.40 -835.33,-660.48 -835.60,-662.64 -836.18,-664.75 -836.99,-666.77 -838.00,-668.70 -839.16,-670.54"/>
    </edge>
    <edge id=":104_8" function="internal">
        <lane id=":104_8_0" index="0" disallow="pedestrian tram rail_urban rail rail_electric rail_fast ship" speed="12.41" length="33.56" width="3.50" shape="-843.91,-646.17 -842.85,-646.90 -839.66,-648.81 -837.34,-649.89 -834.91,-650.74 -832.37,-651.30 -829.78,-651.52 -828.42,-651.47 -827.10,-651.33 -825.79,-651.07 -824.49,-650.70 -822.08,-649.72 -819.82,-648.41 -817.77,-646.85 -815.90,-645.12 -814.21,-643.26"/>
    </edge>
    <edge id=":105_0" function="internal">
        <lane id=":105_0_0" index="0" disallow="pedestrian tram rail_urban rail rail_electric rail_fast ship" speed="10.51" length="30.76" width="3.50" shape="-833.49,-788.01 -833.76,-790.38 -834.19,-792.70 -834.84,-794.98 -835.27,-796.08 -835.78,-797.15 -836.38,-798.17 -837.07,-799.13 -837.87,-800.00 -838.77,-800.77 -839.76,-801.41 -840.83,-801.92 -841.95,-802.29 -843.11,-802.53 -844.29,-802.66 -845.47,-802.67 -847.82,-802.44 -850.14,-801.95 -852.40,-801.26 -854.60,-800.43"/>
    </edge>
    <edge id=":105_1" function="internal">
        <lane id=":105_1_0" index="0" disallow="pedestrian tram rail_urban rail rail_electric rail_fast ship" speed="36.11" length="35.91" width="3.50" shape="-833.49,-788.01 -834.55,-804.40 -835.46,-817.71 -836.06,-823.83"/>
    </edge>
    <edge id=":105_2" function="internal">
        <lane id=":105_2_0" index="0" disallow="pedestrian tram rail_urban rail rail_electric rail_fast ship" speed="36.11" length="35.99" width="3.50" shape="-832.58,-824.21 -831.97,-818.04 -831.06,-804.68 -830.01,-788.31"/>
    </edge>
    <edge id=":105_3" function="internal">
        <lane id=":105_3_0" index="0" disallow="pedestrian tram rail_urban rail rail_electric rail_fast ship" speed="13.79" length="34.79" width="3.50" shape="-832.57,-824.21 -832.49,-822.92 -832.64,-820.42 -833.22,-817.94 -834.20,-815.62 -835.48,-813.49 -837.00,-811.57 -838.68,-809.85 -840.50,-808.28 -843.34,-806.22 -846.33,-804.40 -850.42,-802.28 -854.60,-800.43"/>
    </edge>
    <edge id=":105_4" function="internal">
        <lane id=":105_4_0" index="0" disallow="pedestrian tram rail_urban rail rail_electric rail_fast ship" speed="12.87" length="30.28" width="3.50" shape="-855.93,-803.67 -852.12,-805.35 -848.39,-807.25 -845.70,-808.85 -843.13,-810.65 -841.52,-811.98 -840.02,-813.44 -838.68,-815.04 -837.54,-816.79 -836.67,-818.69 -836.14,-820.71 -835.99,-822.79 -836.06,-823.83"/>
    </edge>
    <edge id=":105_5" function="internal">
        <lane id=":105_5_0" index="0" disallow="pedestrian tram rail_urban rail rail_electric rail_fast ship" speed="11.56" length="37.58" width="3.50" shape="-855.93,-803.67 -853.38,-804.64 -850.72,-805.44 -847.97,-806.02 -845.15,-806.29 -843.65,-806.27 -842.17,-806.11 -840.70,-805.80 -839.25,-805.31 -837.86,-804.64 -836.56,-803.79 -835.39,-802.79 -834.37,-801.66 -833.49,-800.44 -832.74,-799.16 -832.12,-797.84 -831.59,-796.48 -830.82,-793.78 -830.31,-791.05 -830.01,-788.31"/>
    </edge>
    <edge id=":106_0" function="internal">
        <lane id=":106_0_0" index="0" disallow="pedestrian tram rail_urban rail rail_electric rail_fast ship" speed="8.34" length="16.13" width="3.50" shape="-751.95,-793.66 -754.96,-791.71 -757.27,-789.81 -758.92,-788.08 -760.31,-786.13 -761.12,-784.53 -761.68,-782.83 -761.88,-781.66"/>
    </edge>
    <edge id=":106_1" function="internal">
        <lane id=":106_1_0" index="0" disallow="pedestrian tram rail_urban rail rail_electric rail_fast ship" speed="36.11" length="36.07" width="3.50" shape="-751.95,-793.66 -764.47,-786.48 -783.38,-775.97"/>
    </edge>
    <edge id=":106_2" function="internal">
        <lane id=":106_2_0" index="0" disallow="pedestrian tram rail_urban rail rail_electric rail_fast ship" speed="36.11" length="35.96" width="3.50" shape="-785.06,-779.04 -766.19,-789.52 -753.72,-796.68"/>
    </edge>
    <edge id=":106_3" function="internal">
        <lane id=":106_3_0" index="0" disallow="pedestrian tram rail_urban rail rail_electric rail_fast ship" speed="9.72" length="19.89" width="3.50" shape="-785.06,-779.04 -782.50,-780.27 -779.81,-781.18 -777.58,-781.63 -775.31,-781.78 -773.05,-781.59 -770.84,-781.05 -768.74,-780.20 -766.77,-779.06 -766.31,-778.71"/>
    </edge>
    <edge id=":107_0" function="internal">
        <lane id=":107_0_0" index="0" disallow="pedestrian tram rail_urban rail rail_electric rail_fast ship" speed="10.46" length="24.83" width="3.50" shape="-836.08,-824.09 -836.45,-826.21 -837.13,-828.26 -837.60,-829.24 -838.16,-830.16 -838.82,-831.02 -839.57,-831.79 -840.40,-832.49 -841.29,-833.09 -842.24,-833.61 -843.23,-834.04 -844.26,-834.39 -846.36,-834.88 -848.51,-835.13 -850.67,-835.20 -853.91,-835.04 -854.96,-834.93"/>
    </edge>
    <edge id=":107_1" function="internal">
        <lane id=":107_1_0" index="0" disallow="pedestrian tram rail_urban rail rail_electric rail_fast ship" speed="36.11" length="33.62" width="3.50" shape="-836.08,-824.09 -836.76,-830.36 -839.41,-857.54"/>
    </edge>
    <edge id=":107_2" function="internal">
        <lane id=":107_2_0" index="0" disallow="pedestrian tram rail_urban rail rail_electric rail_fast ship" speed="36.11" length="33.54" width="3.50" shape="-835.93,-857.88 -833.28,-830.72 -832.61,-824.50"/>
    </edge>
    <edge id=":107_3" function="internal">
        <lane id=":107_3_0" index="0" disallow="pedestrian tram rail_urban rail rail_electric rail_fast ship" speed="12.19" length="33.92" width="3.50" shape="-835.93,-857.88 -835.79,-855.34 -835.85,-852.78 -836.16,-850.21 -836.78,-847.66 -837.74,-845.22 -838.38,-844.01 -839.12,-842.87 -839.95,-841.81 -840.86,-840.81 -841.86,-839.91 -842.91,-839.09 -844.05,-838.34 -846.35,-837.14 -848.77,-836.22 -851.26,-835.55 -854.96,-834.93"/>
    </edge>
    <edge id=":107_4" function="internal">
        <lane id=":107_4_0" index="0" disallow="pedestrian tram rail_urban rail rail_electric rail_fast ship" speed="11.19" length="28.43" width="3.50" shape="-855.38,-838.40 -852.15,-838.94 -850.04,-839.51 -847.99,-840.29 -846.05,-841.29 -845.13,-841.90 -844.27,-842.57 -843.46,-843.30 -842.71,-844.10 -842.04,-844.97 -841.44,-845.88 -840.93,-846.85 -840.12,-848.88 -839.61,-851.01 -839.34,-853.18 -839.29,-855.37 -839.41,-857.54"/>
    </edge>
    <edge id=":107_5" function="internal">
        <lane id=":107_5_0" index="0" disallow="pedestrian tram rail_urban rail rail_electric rail_fast ship" speed="11.55" length="30.40" width="3.50" shape="-855.38,-838.40 -854.12,-838.53 -850.38,-838.71 -847.82,-838.60 -845.25,-838.27 -842.73,-837.63 -841.45,-837.17 -840.22,-836.60 -839.04,-835.91 -837.92,-835.10 -836.88,-834.18 -835.95,-833.15 -835.13,-832.04 -834.44,-830.85 -833.85,-829.58 -833.05,-827.07 -832.61,-824.50"/>
    </edge>
    <edge id=":108_0" function="internal">
        <lane id=":108_0_0" index="0" disallow="pedestrian tram rail_urban rail rail_electric rail_fast ship" speed="11.83" length="29.83" width="3.50" shape="-920.14,-676.86 -921.51,-678.69 -923.79,-681.27 -925.43,-682.78 -927.19,-684.12 -929.06,-685.24 -931.05,-686.09 -933.11,-686.63 -935.24,-686.85 -937.38,-686.76 -939.52,-686.38 -941.63,-685.73 -943.70,-684.86 -945.72,-683.80"/>
    </edge>
    <edge id=":108_1" function="internal">
        <lane id=":108_1_0" index="0" disallow="pedestrian tram rail_urban rail rail_electric rail_fast ship" speed="11.42" length="31.55" width="3.50" shape="-920.14,-676.86 -920.89,-677.96 -922.91,-681.26 -924.08,-683.64 -925.05,-686.14 -925.71,-688.75 -925.91,-690.16 -925.98,-691.57 -925.91,-692.99 -925.68,-694.41 -925.30,-695.80 -924.76,-697.14 -924.07,-698.41 -923.26,-699.58 -922.35,-700.66 -921.35,-701.64 -920.28,-702.54 -918.09,-704.05"/>
    </edge>
    <edge id=":108_2" function="internal">
        <lane id=":108_2_0" index="0" disallow="pedestrian tram rail_urban rail rail_electric rail_fast ship" speed="10.35" length="25.71" width="3.50" shape="-916.26,-701.06 -918.10,-699.80 -918.95,-699.07 -919.73,-698.27 -920.44,-697.41 -921.06,-696.48 -921.57,-695.48 -921.95,-694.43 -922.22,-693.35 -922.35,-692.24 -922.38,-691.12 -922.29,-690.00 -922.11,-688.90 -921.52,-686.74 -920.69,-684.67 -919.68,-682.67 -917.92,-679.81 -917.29,-678.89"/>
    </edge>
    <edge id=":108_3" function="internal">
        <lane id=":108_3_0" index="0" disallow="pedestrian tram rail_urban rail rail_electric rail_fast ship" speed="36.11" length="34.14" width="3.50" shape="-916.26,-701.06 -936.74,-688.98 -945.72,-683.80"/>
    </edge>
    <edge id=":108_4" function="internal">
        <lane id=":108_4_0" index="0" disallow="pedestrian tram rail_urban rail rail_electric rail_fast ship" speed="36.11" length="34.04" width="3.50" shape="-947.46,-686.84 -938.50,-692.00 -918.09,-704.05"/>
    </edge>
    <edge id=":108_5" function="internal">
        <lane id=":108_5_0" index="0" disallow="pedestrian tram rail_urban rail rail_electric rail_fast ship" speed="12.79" length="35.04" width="3.50" shape="-947.46,-686.84 -945.14,-688.06 -942.75,-689.06 -940.27,-689.83 -937.72,-690.30 -935.13,-690.42 -932.55,-690.16 -930.03,-689.52 -927.64,-688.51 -925.41,-687.20 -923.34,-685.63 -921.43,-683.87 -918.85,-680.96 -917.29,-678.89"/>
    </edge>
    <edge id=":109_0" function="internal">