<routes>
	<vehicle depart="0.1" departLane="0" departPos="13.782803056723708" departSpeed="0.11558832" id="327" type="bus">
		<route edges="11183 12259"/>
	</vehicle>
	<vehicle depart="0.1" departLane="0" departPos="2.5" departSpeed="1.406376" id="30" type="passenger">
		<route edges="11286 12324"/>
	</vehicle>
	<vehicle depart="0.1" departLane="0" departPos="2.5" departSpeed="1.2622395" id="31" type="passenger">
		<route edges="11284 12259"/>
	</vehicle>
	<vehicle depart="0.1" departLane="0" departPos="30.628960450237322" departSpeed="0.84950759" id="38" type="passenger">
		<route edges="11289 11286"/>
	</vehicle>
	<vehicle depart="0.1" departLane="0" departPos="6.510028766279786" departSpeed="1.6444714" id="324" type="passenger">
		<route edges=":25_9 12259 11290"/>
	</vehicle>
	<vehicle depart="0.1" departLane="0" departPos="22.644961951416676" departSpeed="0.92581701" id="328" type="passenger">
		<route edges="12367 11183"/>
	</vehicle>
	<vehicle depart="0.1" departLane="0" departPos="27.09863386431663" departSpeed="11.179038" id="329" type="passenger">
		<route edges=":25_4 11182 12696"/>
	</vehicle>
	<vehicle depart="0.1" departLane="0" departPos="14.784915212612587" departSpeed="0.25350967" id="330" type="passenger">
		<route edges="12367 11183"/>
	</vehicle>
	<vehicle depart="0.1" departLane="0" departPos="15.430270079957317" departSpeed="10.578642" id="331" type="passenger">
		<route edges=":25_5 12259 11290"/>
	</vehicle>
</routes>
