<!-- generated on Tue Feb  9 22:08:04 2021 by Eclipse SUMO netconvert Version 1.8.0
<configuration xmlns:xsi="http://www.w3.org/2001/XMLSchema-instance" xsi:noNamespaceSchemaLocation="http://sumo.dlr.de/xsd/netconvertConfiguration.xsd">

    <input>
        <node-files value="./converted_scenarios/scenario-factory/ESP_Berga-6_1_I-1-1/ESP_Berga-6_1_I-1-1.nod.xml"/>
        <edge-files value="./converted_scenarios/scenario-factory/ESP_Berga-6_1_I-1-1/ESP_Berga-6_1_I-1-1.edg.xml"/>
        <connection-files value="./converted_scenarios/scenario-factory/ESP_Berga-6_1_I-1-1/ESP_Berga-6_1_I-1-1.con.xml"/>
        <tllogic-files value="./converted_scenarios/scenario-factory/ESP_Berga-6_1_I-1-1/ESP_Berga-6_1_I-1-1.tll.xml"/>
        <type-files value="/home/zen/commonroad-interactive-benchmarks/install/commonroad-map-tool/crmapconverter/sumo_map/templates/DEU.typ.xml"/>
    </input>

    <output>
        <output-file value="./converted_scenarios/scenario-factory/ESP_Berga-6_1_I-1-1/ESP_Berga-6_1_I-1-1.net.xml"/>
    </output>

    <processing>
        <geometry.remove.keep-edges.explicit value="true"/>
        <geometry.avoid-overlap value="true"/>
        <offset.disable-normalization value="true"/>
    </processing>

    <junctions>
        <no-turnarounds value="true"/>
        <junctions.internal-link-detail value="20"/>
    </junctions>

    <report>
        <aggregate-warnings value="5"/>
    </report>

    <random_number>
        <seed value="1234"/>
    </random_number>

</configuration>
--><net xmlns:xsi="http://www.w3.org/2001/XMLSchema-instance" version="1.6" junctionCornerDetail="5" junctionLinkDetail="20" limitTurnSpeed="5.50" xsi:noNamespaceSchemaLocation="http://sumo.dlr.de/xsd/net_file.xsd">

    <location netOffset="0.00,0.00" convBoundary="-409.44,-650.85,-147.75,-525.01" origBoundary="-409.44,-650.85,-147.75,-525.01" projParameter="!"/>

    <type id="highway.bridleway" priority="1" speed="2.78" allow="pedestrian" oneway="1" width="2.00"/>
    <type id="highway.bus_guideway" priority="1" speed="27.78" allow="bus" oneway="1"/>
    <type id="highway.cycleway" priority="1" speed="8.33" allow="bicycle" oneway="0" width="1.00"/>
    <type id="highway.footway" priority="1" speed="2.78" allow="pedestrian" oneway="1" width="2.00"/>
    <type id="highway.ford" priority="1" speed="2.78" allow="army" oneway="0"/>
    <type id="highway.living_street" priority="2" speed="2.78" disallow="tram rail_urban rail rail_electric rail_fast ship" oneway="0"/>
    <type id="highway.motorway" priority="14" speed="39.44" allow="private emergency authority army vip passenger hov taxi bus coach delivery truck trailer motorcycle evehicle custom1 custom2" oneway="1"/>
    <type id="highway.motorway_link" priority="9" speed="22.22" allow="private emergency authority army vip passenger hov taxi bus coach delivery truck trailer motorcycle evehicle custom1 custom2" oneway="1"/>
    <type id="highway.path" priority="1" speed="2.78" allow="pedestrian bicycle" oneway="0" width="2.00"/>
    <type id="highway.pedestrian" priority="1" speed="2.78" allow="pedestrian" oneway="1" width="2.00"/>
    <type id="highway.primary" priority="12" speed="27.78" disallow="pedestrian tram rail_urban rail rail_electric rail_fast ship" oneway="0"/>
    <type id="highway.primary_link" priority="7" speed="22.22" disallow="pedestrian tram rail_urban rail rail_electric rail_fast ship" oneway="0"/>
    <type id="highway.raceway" priority="15" speed="83.33" allow="vip" oneway="0"/>
    <type id="highway.residential" priority="3" speed="13.89" disallow="pedestrian tram rail_urban rail rail_electric rail_fast ship" oneway="0"/>
    <type id="highway.secondary" priority="11" speed="27.78" disallow="pedestrian tram rail_urban rail rail_electric rail_fast ship" oneway="0"/>
    <type id="highway.secondary_link" priority="6" speed="22.22" disallow="pedestrian tram rail_urban rail rail_electric rail_fast ship" oneway="0"/>
    <type id="highway.service" priority="1" speed="5.56" allow="pedestrian delivery bicycle" oneway="0"/>
    <type id="highway.stairs" priority="1" speed="1.39" allow="pedestrian" oneway="1" width="2.00"/>
    <type id="highway.step" priority="1" speed="1.39" allow="pedestrian" oneway="1" width="2.00"/>
    <type id="highway.steps" priority="1" speed="1.39" allow="pedestrian" oneway="1" width="2.00"/>
    <type id="highway.tertiary" priority="10" speed="22.22" disallow="pedestrian tram rail_urban rail rail_electric rail_fast ship" oneway="0"/>
    <type id="highway.tertiary_link" priority="5" speed="22.22" disallow="pedestrian tram rail_urban rail rail_electric rail_fast ship" oneway="0"/>
    <type id="highway.track" priority="1" speed="5.56" allow="pedestrian motorcycle moped bicycle" oneway="0"/>
    <type id="highway.trunk" priority="13" speed="27.78" disallow="pedestrian bicycle tram rail_urban rail rail_electric rail_fast ship" oneway="0"/>
    <type id="highway.trunk_link" priority="8" speed="22.22" disallow="pedestrian bicycle tram rail_urban rail rail_electric rail_fast ship" oneway="0"/>
    <type id="highway.unclassified" priority="4" speed="13.89" disallow="pedestrian tram rail_urban rail rail_electric rail_fast ship" oneway="0"/>
    <type id="highway.unsurfaced" priority="1" speed="8.33" disallow="tram rail_urban rail rail_electric rail_fast ship" oneway="0"/>
    <type id="railway.highspeed" priority="21" speed="69.44" allow="rail_fast" oneway="1"/>
    <type id="railway.light_rail" priority="19" speed="27.78" allow="rail_urban" oneway="1"/>
    <type id="railway.preserved" priority="16" speed="27.78" allow="rail" oneway="1"/>
    <type id="railway.rail" priority="20" speed="44.44" allow="rail" oneway="1"/>
    <type id="railway.subway" priority="18" speed="27.78" allow="rail_urban" oneway="1"/>
    <type id="railway.tram" priority="17" speed="13.89" allow="tram" oneway="1"/>

    <edge id=":70_0" function="internal">
        <lane id=":70_0_0" index="0" disallow="pedestrian tram rail_urban rail rail_electric rail_fast ship" speed="36.11" length="2.95" width="3.50" shape="-256.76,-537.30 -259.69,-536.95"/>
    </edge>
    <edge id=":74_0" function="internal">
        <lane id=":74_0_0" index="0" disallow="pedestrian tram rail_urban rail rail_electric rail_fast ship" speed="36.11" length="11.08" width="3.50" shape="-272.74,-566.83 -268.53,-564.03 -265.45,-562.10 -263.34,-560.97"/>
    </edge>
    <edge id=":74_1" function="internal">
        <lane id=":74_1_0" index="0" disallow="pedestrian tram rail_urban rail rail_electric rail_fast ship" speed="11.14" length="11.38" width="3.50" shape="-272.74,-566.83 -270.60,-565.41 -268.53,-563.68 -267.10,-562.06 -266.25,-560.68 -265.48,-558.48"/>
    </edge>
    <edge id=":75_0" function="internal">
        <lane id=":75_0_0" index="0" disallow="pedestrian tram rail_urban rail rail_electric rail_fast ship" speed="36.11" length="15.96" width="3.50" shape="-294.90,-575.15 -293.31,-574.42 -290.40,-573.36 -281.95,-571.02 -279.74,-570.22"/>
    </edge>
    <edge id=":75_1" function="internal">
        <lane id=":75_1_0" index="0" disallow="pedestrian tram rail_urban rail rail_electric rail_fast ship" speed="35.20" length="18.72" width="3.50" shape="-298.04,-573.81 -293.51,-573.44 -288.92,-572.77 -284.41,-571.76 -279.74,-570.22"/>
    </edge>
    <edge id=":76_0" function="internal">
        <lane id=":76_0_0" index="0" disallow="pedestrian tram rail_urban rail rail_electric rail_fast ship" speed="7.85" length="26.94" width="3.50" shape="-292.22,-584.66 -285.44,-585.40 -279.42,-586.49 -273.49,-587.96 -265.98,-590.39"/>
    </edge>
    <edge id=":76_1" function="internal">
        <lane id=":76_1_0" index="0" disallow="pedestrian tram rail_urban rail rail_electric rail_fast ship" speed="7.48" length="26.28" width="3.50" shape="-290.57,-581.14 -279.20,-585.63 -265.98,-590.39"/>
    </edge>
    <edge id=":77_0" function="internal">
        <lane id=":77_0_0" index="0" disallow="pedestrian tram rail_urban rail rail_electric rail_fast ship" speed="11.58" length="14.34" width="3.50" shape="-304.61,-580.41 -302.99,-579.77 -300.87,-579.26 -298.69,-579.11 -296.51,-579.29 -293.85,-579.90 -290.75,-581.07"/>
    </edge>
    <edge id=":77_1" function="internal">
        <lane id=":77_1_0" index="0" disallow="pedestrian tram rail_urban rail rail_electric rail_fast ship" speed="36.11" length="10.85" width="3.50" shape="-304.61,-580.41 -300.42,-578.15 -295.07,-575.25"/>
    </edge>
    <edge id=":77_2" function="internal">
        <lane id=":77_2_0" index="0" disallow="pedestrian tram rail_urban rail rail_electric rail_fast ship" speed="36.11" length="10.38" width="3.50" shape="-300.26,-576.92 -298.66,-577.62 -292.29,-580.43 -290.75,-581.07"/>
    </edge>
    <edge id=":77_3" function="internal">
        <lane id=":77_3_0" index="0" disallow="pedestrian tram rail_urban rail rail_electric rail_fast ship" speed="7.22" length="7.01" width="3.50" shape="-300.26,-576.92 -300.91,-576.37 -299.77,-576.64 -298.60,-576.64 -297.45,-576.40 -295.07,-575.25"/>
    </edge>
    <edge id=":78_0" function="internal">
        <lane id=":78_0_0" index="0" disallow="pedestrian tram rail_urban rail rail_electric rail_fast ship" speed="22.23" length="34.31" width="3.50" shape="-214.57,-607.02 -223.06,-603.32 -229.99,-599.93 -235.85,-596.70 -240.64,-593.69 -244.67,-590.76"/>
    </edge>
    <edge id=":78_1" function="internal">
        <lane id=":78_1_0" index="0" disallow="pedestrian tram rail_urban rail rail_electric rail_fast ship" speed="36.11" length="41.89" width="3.50" shape="-254.75,-594.58 -232.69,-603.38 -215.91,-610.26"/>
    </edge>
    <edge id=":79_0" function="internal">
        <lane id=":79_0_0" index="0" disallow="pedestrian tram rail_urban rail rail_electric rail_fast ship" speed="21.17" length="13.95" width="3.50" shape="-313.72,-573.13 -307.11,-574.15 -304.08,-574.90 -302.63,-575.46 -300.43,-576.81"/>
    </edge>
    <edge id=":79_1" function="internal">
        <lane id=":79_1_0" index="0" disallow="pedestrian tram rail_urban rail rail_electric rail_fast ship" speed="36.11" length="15.52" width="3.50" shape="-313.72,-573.13 -307.12,-573.78 -301.46,-573.92 -298.24,-573.82"/>
    </edge>
    <edge id=":80_0" function="internal">
        <lane id=":80_0_0" index="0" disallow="pedestrian tram rail_urban rail rail_electric rail_fast ship" speed="7.14" length="10.10" width="3.50" shape="-259.92,-567.43 -259.93,-567.07 -260.40,-564.75 -260.43,-562.98 -260.09,-561.25 -259.62,-560.17 -258.95,-559.20 -257.86,-558.20"/>
    </edge>
    <edge id=":80_1" function="internal">
        <lane id=":80_1_0" index="0" disallow="pedestrian tram rail_urban rail rail_electric rail_fast ship" speed="36.11" length="11.25" width="3.50" shape="-259.92,-567.43 -261.36,-563.87 -264.15,-557.01"/>
    </edge>
    <edge id=":80_2" function="internal">
        <lane id=":80_2_0" index="0" disallow="pedestrian tram rail_urban rail rail_electric rail_fast ship" speed="36.11" length="5.95" width="3.50" shape="-263.17,-560.88 -260.70,-559.56 -257.93,-558.07"/>
    </edge>
    <edge id=":80_3" function="internal">
        <lane id=":80_3_0" index="0" disallow="pedestrian tram rail_urban rail rail_electric rail_fast ship" speed="5.65" length="5.94" width="3.50" shape="-263.17,-560.88 -264.21,-561.37 -263.75,-560.91 -263.43,-560.35 -263.31,-559.71 -263.37,-559.07 -264.15,-557.01"/>
    </edge>
    <edge id=":81_0" function="internal">
        <lane id=":81_0_0" index="0" disallow="pedestrian tram rail_urban rail rail_electric rail_fast ship" speed="23.82" length="10.96" width="3.49" shape="-264.23,-556.82 -265.97,-551.73 -267.15,-549.37 -268.91,-547.01"/>
    </edge>
    <edge id=":81_1" function="internal">
        <lane id=":81_1_0" index="0" disallow="pedestrian tram rail_urban rail rail_electric rail_fast ship" speed="9.46" length="12.23" width="3.49" shape="-265.42,-558.29 -265.30,-557.28 -265.21,-555.63 -265.36,-553.99 -265.75,-552.38 -266.60,-550.35 -268.91,-547.01"/>
    </edge>
    <edge id=":82_0" function="internal">
        <lane id=":82_0_0" index="0" disallow="pedestrian tram rail_urban rail rail_electric rail_fast ship" speed="34.01" length="6.63" width="3.50" shape="-319.75,-572.69 -318.49,-572.70 -314.10,-573.09 -313.14,-573.21"/>
    </edge>
    <edge id=":82_1" function="internal">
        <lane id=":82_1_0" index="0" disallow="pedestrian tram rail_urban rail rail_electric rail_fast ship" speed="9.20" length="9.49" width="3.50" shape="-321.33,-569.05 -320.35,-570.32 -319.09,-571.31 -317.67,-572.05 -315.64,-572.73 -313.14,-573.20"/>
    </edge>
    <edge id=":83_0" function="internal">
        <lane id=":83_0_0" index="0" disallow="pedestrian tram rail_urban rail rail_electric rail_fast ship" speed="36.11" length="32.41" width="3.50" shape="-272.86,-536.12 -282.91,-536.62 -289.52,-537.43 -296.58,-538.68 -304.84,-540.78"/>
    </edge>
    <edge id=":83_1" function="internal">
        <lane id=":83_1_0" index="0" disallow="pedestrian tram rail_urban rail rail_electric rail_fast ship" speed="14.22" length="30.24" width="3.50" shape="-275.42,-541.36 -275.58,-541.26 -277.97,-540.09 -280.49,-539.21 -283.61,-538.52 -286.79,-538.17 -290.52,-538.14 -294.77,-538.51 -299.50,-539.33 -304.84,-540.78"/>
    </edge>
    <edge id=":84_0" function="internal">
        <lane id=":84_0_0" index="0" disallow="pedestrian tram rail_urban rail rail_electric rail_fast ship" speed="36.11" length="9.79" width="3.49" shape="-322.37,-571.82 -322.28,-572.55 -322.20,-573.20 -322.14,-573.79 -322.09,-574.33 -322.06,-574.82 -322.04,-575.27 -322.03,-575.70 -322.03,-576.10 -322.04,-576.50 -322.06,-576.88 -322.08,-577.28 -322.11,-577.68 -322.14,-578.11 -322.17,-578.57 -322.20,-579.06 -322.23,-579.60 -322.26,-580.20 -322.28,-580.86 -322.30,-581.59"/>
    </edge>
    <edge id=":84_1" function="internal">
        <lane id=":84_1_0" index="0" disallow="pedestrian tram rail_urban rail rail_electric rail_fast ship" speed="4.76" length="4.34" width="3.48" shape="-322.37,-571.82 -322.37,-570.91 -321.89,-572.01 -321.51,-572.47 -320.99,-572.76 -319.95,-572.73"/>
    </edge>
    <edge id=":84_2" function="internal">
        <lane id=":84_2_0" index="0" disallow="pedestrian tram rail_urban rail rail_electric rail_fast ship" speed="5.14" length="5.07" width="3.49" shape="-326.18,-573.65 -322.26,-576.86"/>
    </edge>
    <edge id=":84_3" function="internal">
        <lane id=":84_3_0" index="0" disallow="pedestrian tram rail_urban rail rail_electric rail_fast ship" speed="36.11" length="8.02" width="3.48" shape="-327.89,-573.88 -324.84,-573.44 -319.95,-572.73"/>
    </edge>
    <edge id=":86_0" function="internal">
        <lane id=":86_0_0" index="0" disallow="pedestrian tram rail_urban rail rail_electric rail_fast ship" speed="10.78" length="14.67" width="3.49" shape="-255.62,-562.77 -251.61,-555.79 -250.00,-554.42 -248.18,-553.32 -246.21,-552.52 -245.97,-552.45"/>
    </edge>
    <edge id=":86_1" function="internal">
        <lane id=":86_1_0" index="0" disallow="pedestrian tram rail_urban rail rail_electric rail_fast ship" speed="36.11" length="13.96" width="3.49" shape="-258.57,-558.42 -250.46,-554.26 -246.67,-552.68 -245.96,-552.47"/>
    </edge>
    <edge id=":87_0" function="internal">
        <lane id=":87_0_0" index="0" disallow="pedestrian tram rail_urban rail rail_electric rail_fast ship" speed="34.65" length="12.64" width="3.50" shape="-319.07,-547.40 -323.73,-550.12 -329.65,-554.01 -329.78,-554.11"/>
    </edge>
    <edge id=":87_1" function="internal">
        <lane id=":87_1_0" index="0" disallow="pedestrian tram rail_urban rail rail_electric rail_fast ship" speed="7.45" length="9.54" width="3.50" shape="-318.76,-548.23 -319.73,-549.06 -321.58,-551.07 -322.80,-552.88 -323.73,-554.86 -324.04,-555.98"/>
    </edge>
    <edge id=":88_0" function="internal">
        <lane id=":88_0_0" index="0" disallow="pedestrian tram rail_urban rail rail_electric rail_fast ship" speed="36.11" length="9.27" width="3.50" shape="-324.10,-562.51 -324.00,-563.14 -322.85,-568.36 -322.40,-571.62"/>
    </edge>
    <edge id=":88_1" function="internal">
        <lane id=":88_1_0" index="0" disallow="pedestrian tram rail_urban rail rail_electric rail_fast ship" speed="18.09" length="10.39" width="3.49" shape="-324.08,-562.50 -323.30,-565.07 -321.97,-567.92 -319.69,-571.87"/>
    </edge>
    <edge id=":89_0" function="internal">
        <lane id=":89_0_0" index="0" disallow="pedestrian tram rail_urban rail rail_electric rail_fast ship" speed="36.11" length="23.79" width="3.50" shape="-352.93,-575.31 -362.91,-585.38 -369.79,-592.10"/>
    </edge>
    <edge id=":89_1" function="internal">
        <lane id=":89_1_0" index="0" disallow="pedestrian tram rail_urban rail rail_electric rail_fast ship" speed="23.35" length="24.50" width="3.50" shape="-367.38,-594.63 -361.31,-589.10 -356.15,-584.86 -351.59,-581.54 -348.23,-579.43"/>
    </edge>
    <edge id=":90_0" function="internal">
        <lane id=":90_0_0" index="0" disallow="pedestrian tram rail_urban rail rail_electric rail_fast ship" speed="36.11" length="18.01" width="3.50" shape="-321.14,-586.96 -314.90,-585.32 -310.80,-584.69 -306.16,-584.34 -303.40,-584.28"/>
    </edge>
    <edge id=":90_1" function="internal">
        <lane id=":90_1_0" index="0" disallow="pedestrian tram rail_urban rail rail_electric rail_fast ship" speed="36.11" length="17.62" width="3.50" shape="-321.14,-586.96 -314.06,-584.72 -309.35,-582.75 -304.79,-580.50"/>
    </edge>
    <edge id=":91_0" function="internal">
        <lane id=":91_0_0" index="0" disallow="pedestrian tram rail_urban rail rail_electric rail_fast ship" speed="36.11" length="36.29" width="3.50" shape="-197.03,-561.45 -203.16,-559.06 -210.53,-555.73 -229.89,-546.10"/>
    </edge>
    <edge id=":91_1" function="internal">
        <lane id=":91_1_0" index="0" disallow="pedestrian tram rail_urban rail rail_electric rail_fast ship" speed="28.12" length="44.80" width="3.50" shape="-241.13,-552.11 -240.91,-552.12 -236.91,-552.76 -230.99,-554.14 -222.22,-556.65 -210.18,-560.56 -198.22,-564.75"/>
    </edge>
    <edge id=":92_0" function="internal">
        <lane id=":92_0_0" index="0" disallow="pedestrian tram rail_urban rail rail_electric rail_fast ship" speed="13.82" length="16.28" width="3.50" shape="-253.68,-580.98 -254.83,-578.74 -255.73,-576.27 -256.32,-573.72 -256.60,-571.11 -256.58,-568.49 -256.17,-565.24"/>
    </edge>
    <edge id=":92_1" function="internal">
        <lane id=":92_1_0" index="0" disallow="pedestrian tram rail_urban rail rail_electric rail_fast ship" speed="36.11" length="14.74" width="3.50" shape="-253.68,-580.98 -255.78,-577.01 -258.48,-570.95 -259.85,-567.61"/>
    </edge>
    <edge id=":93_0" function="internal">
        <lane id=":93_0_0" index="0" disallow="pedestrian tram rail_urban rail rail_electric rail_fast ship" speed="7.98" length="15.25" width="3.49" shape="-342.25,-576.32 -336.96,-575.12 -335.07,-575.06 -333.83,-575.24 -332.64,-575.65 -331.58,-576.32 -330.73,-577.25 -330.12,-578.34 -329.63,-579.93"/>
    </edge>
    <edge id=":93_1" function="internal">
        <lane id=":93_1_0" index="0" disallow="pedestrian tram rail_urban rail rail_electric rail_fast ship" speed="36.11" length="16.11" width="3.50" shape="-342.25,-576.32 -335.81,-574.87 -326.38,-573.68"/>
    </edge>

    <edge id="75759" from="93" to="84" priority="3" type="highway.residential" spreadType="center" length="0.20">
        <lane id="75759_0" index="0" disallow="pedestrian tram rail_urban rail rail_electric rail_fast ship" speed="36.11" length="0.20" width="3.50" customShape="1" shape="-326.38,-573.68 -326.18,-573.65"/>
    </edge>
    <edge id="75763" from="84" to="82" priority="3" type="highway.residential" spreadType="center" length="0.20">
        <lane id="75763_0" index="0" disallow="pedestrian tram rail_urban rail rail_electric rail_fast ship" speed="36.11" length="0.20" width="3.48" customShape="1" shape="-319.95,-572.73 -319.75,-572.69"/>
    </edge>
    <edge id="75777" from="75" to="74" priority="3" type="highway.residential" spreadType="center" length="7.79">
        <lane id="75777_0" index="0" disallow="pedestrian tram rail_urban rail rail_electric rail_fast ship" speed="36.11" length="7.79" width="3.50" customShape="1" shape="-279.74,-570.22 -276.57,-568.91 -272.71,-566.89"/>
    </edge>
    <edge id="75779" from="74" to="81" priority="3" type="highway.residential" spreadType="center" length="0.20">
        <lane id="75779_0" index="0" disallow="pedestrian tram rail_urban rail rail_electric rail_fast ship" speed="36.11" length="0.20" width="3.50" customShape="1" shape="-265.48,-558.48 -265.42,-558.29"/>
    </edge>
    <edge id="75781" from="81" to="83" priority="3" type="highway.residential" spreadType="center" length="8.57">
        <lane id="75781_0" index="0" disallow="pedestrian tram rail_urban rail rail_electric rail_fast ship" speed="36.11" length="8.57" width="3.49" customShape="1" shape="-268.91,-547.01 -274.79,-540.77"/>
    </edge>
    <edge id="75792" from="89" to="93" priority="3" type="highway.residential" spreadType="center" length="6.57">
        <lane id="75792_0" index="0" disallow="pedestrian tram rail_urban rail rail_electric rail_fast ship" speed="36.11" length="6.57" width="3.50" customShape="1" shape="-348.61,-577.96 -342.25,-576.32"/>
    </edge>
    <edge id="75831" from="87" to="89" priority="3" type="highway.residential" spreadType="center" length="31.43">
        <lane id="75831_0" index="0" disallow="pedestrian tram rail_urban rail rail_electric rail_fast ship" speed="36.11" length="31.43" width="3.50" customShape="1" shape="-329.98,-553.87 -337.78,-560.21 -353.21,-575.01"/>
    </edge>
    <edge id="75864" from="78" to="48" priority="3" type="highway.residential" spreadType="center" length="70.00" shape="-238.22,-598.84 -149.13,-629.60">
        <lane id="75864_0" index="0" disallow="pedestrian tram rail_urban rail rail_electric rail_fast ship" speed="36.11" length="70.00" width="3.50" customShape="1" shape="-215.91,-610.26 -202.74,-615.71 -191.38,-620.17 -182.26,-623.38 -173.51,-626.06 -167.10,-627.69 -162.10,-628.63 -157.05,-629.22 -150.96,-629.62 -149.13,-629.60"/>
    </edge>
    <edge id="75865" from="65" to="78" priority="3" type="highway.residential" spreadType="center" length="70.00" shape="-147.75,-626.08 -237.08,-595.53">
        <lane id="75865_0" index="0" disallow="pedestrian tram rail_urban rail rail_electric rail_fast ship" speed="36.11" length="70.00" width="3.50" customShape="1" shape="-147.75,-626.08 -150.79,-626.12 -156.72,-625.74 -161.62,-625.16 -166.46,-624.25 -172.72,-622.65 -181.33,-620.01 -190.31,-616.84 -201.53,-612.42 -214.57,-607.02"/>
    </edge>
    <edge id="75872" from="92" to="86" priority="3" type="highway.residential" spreadType="center" length="2.53">
        <lane id="75872_0" index="0" disallow="pedestrian tram rail_urban rail rail_electric rail_fast ship" speed="36.11" length="2.53" width="3.50" customShape="1" shape="-256.17,-565.24 -255.69,-562.97 -255.62,-562.77"/>
    </edge>
    <edge id="75906" from="43" to="90" priority="3" type="highway.residential" spreadType="center" length="2.42">
        <lane id="75906_0" index="0" disallow="pedestrian tram rail_urban rail rail_electric rail_fast ship" speed="36.11" length="2.42" width="3.50" customShape="1" shape="-323.46,-587.64 -321.14,-586.96"/>
    </edge>
    <edge id="75908" from="90" to="77" priority="3" type="highway.residential" spreadType="center" length="0.20">
        <lane id="75908_0" index="0" disallow="pedestrian tram rail_urban rail rail_electric rail_fast ship" speed="36.11" length="0.20" width="3.50" customShape="1" shape="-304.79,-580.50 -304.61,-580.41"/>
    </edge>
    <edge id="75910" from="77" to="75" priority="3" type="highway.residential" spreadType="center" length="0.20">
        <lane id="75910_0" index="0" disallow="pedestrian tram rail_urban rail rail_electric rail_fast ship" speed="36.11" length="0.20" width="3.50" customShape="1" shape="-295.07,-575.25 -294.90,-575.15"/>
    </edge>
    <edge id="75920" from="89" to="59" priority="3" type="highway.residential" spreadType="center" length="70.00" shape="-355.95,-580.44 -409.44,-648.94">
        <lane id="75920_0" index="0" disallow="pedestrian tram rail_urban rail rail_electric rail_fast ship" speed="36.11" length="70.00" width="3.50" customShape="1" shape="-369.79,-592.10 -371.27,-593.52 -382.83,-605.19 -386.57,-609.42 -389.36,-613.10 -391.53,-616.58 -396.48,-626.15 -398.62,-629.66 -404.55,-638.03 -406.66,-641.55 -407.75,-643.87 -409.44,-648.94"/>
    </edge>
    <edge id="75921" from="64" to="89" priority="3" type="highway.residential" spreadType="center" length="69.15" shape="-406.39,-650.85 -353.19,-582.59">
        <lane id="75921_0" index="0" disallow="pedestrian tram rail_urban rail rail_electric rail_fast ship" speed="36.11" length="69.15" width="3.50" customShape="1" shape="-406.39,-650.85 -404.51,-645.18 -403.50,-643.07 -401.47,-639.72 -395.61,-631.45 -393.44,-627.88 -388.55,-618.42 -386.49,-615.11 -383.82,-611.59 -380.20,-607.49 -368.82,-596.02 -367.37,-594.62"/>
    </edge>
    <edge id="75938" from="88" to="84" priority="3" type="highway.residential" spreadType="center" length="0.20">
        <lane id="75938_0" index="0" disallow="pedestrian tram rail_urban rail rail_electric rail_fast ship" speed="36.11" length="0.20" width="3.50" customShape="1" shape="-322.40,-571.62 -322.37,-571.82"/>
    </edge>
    <edge id="75946" from="93" to="68" priority="3" type="highway.residential" spreadType="center" length="7.46">
        <lane id="75946_0" index="0" disallow="pedestrian tram rail_urban rail rail_electric rail_fast ship" speed="36.11" length="7.46" width="3.49" customShape="1" shape="-329.58,-579.92 -329.44,-580.89 -329.43,-581.02 -329.43,-582.68 -329.86,-584.86 -330.54,-586.97 -330.59,-587.09 -330.63,-587.20"/>
    </edge>
    <edge id="75984" from="91" to="70" priority="3" type="highway.residential" spreadType="center" length="28.27">
        <lane id="75984_0" index="0" disallow="pedestrian tram rail_urban rail rail_electric rail_fast ship" speed="36.11" length="28.27" width="3.50" customShape="1" shape="-229.31,-543.93 -250.42,-538.31 -255.09,-537.53 -256.76,-537.30"/>
    </edge>
    <edge id="75986" from="70" to="83" priority="3" type="highway.residential" spreadType="center" length="13.21">
        <lane id="75986_0" index="0" disallow="pedestrian tram rail_urban rail rail_electric rail_fast ship" speed="36.11" length="13.21" width="3.50" customShape="1" shape="-259.69,-536.95 -265.32,-536.38 -271.43,-536.10 -272.86,-536.12"/>
    </edge>
    <edge id="76005" from="78" to="92" priority="3" type="highway.residential" spreadType="center" length="13.00">
        <lane id="76005_0" index="0" disallow="pedestrian tram rail_urban rail rail_electric rail_fast ship" speed="36.11" length="13.00" width="3.50" customShape="1" shape="-247.10,-592.19 -253.57,-581.18 -253.68,-580.98"/>
    </edge>
    <edge id="76007" from="92" to="80" priority="3" type="highway.residential" spreadType="center" length="0.19">
        <lane id="76007_0" index="0" disallow="pedestrian tram rail_urban rail rail_electric rail_fast ship" speed="36.11" length="0.19" width="3.50" customShape="1" shape="-259.85,-567.61 -259.92,-567.43"/>
    </edge>
    <edge id="76011" from="80" to="81" priority="3" type="highway.residential" spreadType="center" length="0.21">
        <lane id="76011_0" index="0" disallow="pedestrian tram rail_urban rail rail_electric rail_fast ship" speed="36.11" length="0.21" width="3.50" customShape="1" shape="-264.15,-557.01 -264.23,-556.82"/>
    </edge>
    <edge id="76035" from="66" to="91" priority="3" type="highway.residential" spreadType="center" length="70.04" shape="-170.60,-525.01 -222.63,-552.89">
        <lane id="76035_0" index="0" disallow="pedestrian tram rail_urban rail rail_electric rail_fast ship" speed="36.11" length="70.04" width="3.50" customShape="1" shape="-170.60,-525.01 -169.41,-526.32 -167.59,-528.71 -165.89,-531.20 -164.70,-533.41 -163.61,-536.22 -162.83,-539.13 -162.26,-542.59 -162.09,-545.09 -162.07,-547.60 -162.25,-550.11 -162.79,-552.56 -163.68,-554.90 -164.93,-557.07 -166.18,-558.64 -168.38,-560.70 -170.38,-562.21 -172.13,-563.20 -174.47,-564.09 -176.92,-564.62 -179.42,-564.83 -184.94,-564.56 -188.42,-564.14 -191.35,-563.42 -197.07,-561.44"/>
    </edge>
    <edge id="76036" from="91" to="61" priority="3" type="highway.residential" spreadType="center" length="70.00" shape="-221.09,-556.02 -162.82,-530.03">
        <lane id="76036_0" index="0" disallow="pedestrian tram rail_urban rail rail_electric rail_fast ship" speed="36.11" length="70.00" width="3.50" customShape="1" shape="-198.22,-564.75 -192.38,-566.77 -189.26,-567.54 -185.57,-568.02 -179.87,-568.33 -177.12,-568.17 -174.42,-567.68 -171.79,-566.83 -169.75,-565.86 -167.43,-564.36 -164.98,-562.30 -163.44,-560.69 -161.79,-558.46 -160.50,-556.01 -159.56,-553.42 -159.00,-550.74 -158.71,-548.06 -158.68,-545.40 -158.98,-541.72 -159.52,-538.58 -160.36,-535.51 -161.33,-532.99 -162.75,-530.13 -162.82,-530.03"/>
    </edge>
    <edge id="76041" from="79" to="77" priority="3" type="highway.residential" spreadType="center" length="0.20">
        <lane id="76041_0" index="0" disallow="pedestrian tram rail_urban rail rail_electric rail_fast ship" speed="36.11" length="0.20" width="3.50" customShape="1" shape="-300.43,-576.81 -300.26,-576.92"/>
    </edge>
    <edge id="76043" from="77" to="76" priority="3" type="highway.residential" spreadType="center" length="0.19">
        <lane id="76043_0" index="0" disallow="pedestrian tram rail_urban rail rail_electric rail_fast ship" speed="36.11" length="0.19" width="3.50" customShape="1" shape="-290.75,-581.07 -290.57,-581.14"/>
    </edge>
    <edge id="76045" from="76" to="78" priority="3" type="highway.residential" spreadType="center" length="14.79">