<routes>
	<vehicle depart="0.1" departLane="0" departPos="48.993892475486675" departSpeed="5.9135813" id="36" type="passenger">
		<route edges=":78_0 76005 76007 76057 76059"/>
	</vehicle>
	<vehicle depart="0.1" departLane="0" departPos="13.77768145973687" departSpeed="4.9206278" id="315" type="passenger">
		<route edges=":83_1 76065 76072"/>
	</vehicle>
	<vehicle depart="0.1" departLane="0" departPos="2.5" departSpeed="3.7667306" id="320" type="passenger">
		<route edges=":83_1 76065"/>
	</vehicle>
	<vehicle depart="0.1" departLane="0" departPos="14.8910866463496" departSpeed="0.0" id="327" type="passenger">
		<route edges="75986 76065"/>
	</vehicle>
	<vehicle depart="0.1" departLane="0" departPos="7.141814850598841" departSpeed="0.2708484" id="331" type="passenger">
		<route edges="75986 76065"/>
	</vehicle>
	<vehicle depart="0.1" departLane="0" departPos="9.466195143917767" departSpeed="1.6061403" id="335" type="passenger">
		<route edges="75984 75986"/>
	</vehicle>
	<vehicle depart="0.1" departLane="0" departPos="52.462785617180906" departSpeed="3.3271613" id="336" type="passenger">
		<route edges=":91_0 75984 75986"/>
	</vehicle>
	<vehicle depart="0.1" departLane="0" departPos="39.14630140360713" departSpeed="4.6324189" id="337" type="passenger">
		<route edges=":91_0 75984"/>
	</vehicle>
	<vehicle depart="0.1" departLane="0" departPos="24.40832167027843" departSpeed="5.9128969" id="340" type="passenger">
		<route edges=":91_0 75984"/>
	</vehicle>
	<vehicle depart="0.1" departLane="0" departPos="9.801593793475636" departSpeed="6.509918" id="341" type="passenger">
		<route edges=":91_0 75984"/>
	</vehicle>
</routes>
