<routes>
	<vehicle depart="0.1" departLane="0" departPos="308.07104009971937" departSpeed="12.3385" id="31" type="passenger">
		<route edges="233"/>
	</vehicle>
	<vehicle depart="0.1" departLane="0" departPos="288.5224855096652" departSpeed="12.2835" id="32" type="passenger">
		<route edges="233 233"/>
	</vehicle>
	<vehicle depart="0.1" departLane="1" departPos="365.1272330267667" departSpeed="28.3358" id="33" type="passenger">
		<route edges="233"/>
	</vehicle>
	<vehicle depart="0.1" departLane="0" departPos="268.8593367812644" departSpeed="12.3662" id="34" type="passenger">
		<route edges="233 233"/>
	</vehicle>
	<vehicle depart="0.1" departLane="1" departPos="335.73482137921803" departSpeed="27.0677" id="35" type="passenger">
		<route edges="233 233"/>
	</vehicle>
	<vehicle depart="0.1" departLane="0" departPos="226.6146075246449" departSpeed="12.154" id="36" type="passenger">
		<route edges="233"/>
	</vehicle>
	<vehicle depart="0.1" departLane="1" departPos="307.42240604662686" departSpeed="25.757" id="37" type="passenger">
		<route edges="233"/>
	</vehicle>
	<vehicle depart="0.1" departLane="1" departPos="280.1479689264486" departSpeed="24.2561" id="38" type="passenger">
		<route edges="233"/>
	</vehicle>
	<vehicle depart="0.1" departLane="1" departPos="253.6761250547904" departSpeed="23.1125" id="39" type="passenger">
		<route edges="233"/>
	</vehicle>
	<vehicle depart="0.1" departLane="0" departPos="204.70957653436685" departSpeed="13.0196" id="310" type="passenger">
		<route edges="233 233"/>
	</vehicle>
	<vehicle depart="0.1" departLane="1" departPos="213.4549377136056" departSpeed="22.3843" id="311" type="passenger">
		<route edges="233"/>
	</vehicle>
	<vehicle depart="0.1" departLane="0" departPos="0" departSpeed="10.1394" id="312" type="passenger">
		<route edges="233"/>
	</vehicle>
	<vehicle depart="0.1" departLane="1" departPos="0" departSpeed="12.8481" id="313" type="passenger">
		<route edges="233 233"/>
	</vehicle>
	<vehicle depart="0.1" departLane="0" departPos="0" departSpeed="11.9074" id="314" type="passenger">
		<route edges="233"/>
	</vehicle>
	<vehicle depart="0.1" departLane="1" departPos="0" departSpeed="11.7461" id="315" type="passenger">
		<route edges="233"/>
	</vehicle>
	<vehicle depart="0.1" departLane="1" departPos="0" departSpeed="13.0265" id="316" type="passenger">
		<route edges="233 233"/>
	</vehicle>
	<vehicle depart="0.1" departLane="1" departPos="0" departSpeed="5.0138" id="318" type="passenger">
		<route edges="233"/>
	</vehicle>
	<vehicle depart="0.1" departLane="0" departPos="0" departSpeed="8.2474" id="319" type="passenger">
		<route edges="233"/>
	</vehicle>
	<vehicle depart="0.1" departLane="1" departPos="0" departSpeed="2.0683" id="320" type="passenger">
		<route edges="233 233"/>
	</vehicle>
</routes>
