<!-- generated on 2020-12-18 16:50:25.370782 by ipykernel_launcher.py v1_2_0+5214-53edc58fcd
-->
<nodes>
	<node id="1" type="from" x="-312.155225" y="-469.99825"/>
	<node id="2" type="to" x="239.66615000000002" y="-300.2068"/>
</nodes>
