<routes>
	<vehicle depart="0.1" departLane="0" departPos="18.085124204152834" departSpeed="0.43467534" id="34" type="passenger">
		<route edges=":19_11 21968"/>
	</vehicle>
	<vehicle depart="0.1" departLane="0" departPos="24.040026748522767" departSpeed="0.39664276" id="36" type="passenger">
		<route edges="22050 21968"/>
	</vehicle>
	<vehicle depart="0.1" departLane="0" departPos="5.553528561287152" departSpeed="3.2692362" id="316" type="passenger">
		<route edges="22924"/>
	</vehicle>
	<vehicle depart="0.1" departLane="0" departPos="7.62917872008595" departSpeed="3.6790482" id="317" type="passenger">
		<route edges="21967 22053"/>
	</vehicle>
	<vehicle depart="0.1" departLane="0" departPos="4.62174305273272" departSpeed="4.7117863" id="318" type="passenger">
		<route edges="21965 21968 22924"/>
	</vehicle>
	<vehicle depart="0.1" departLane="0" departPos="16.9927320793175" departSpeed="5.8830801" id="319" type="passenger">
		<route edges="21967 21964"/>
	</vehicle>
	<vehicle depart="0.1" departLane="0" departPos="22.93029328303618" departSpeed="3.5554497" id="320" type="passenger">
		<route edges="22593 21967 22053"/>
	</vehicle>
	<vehicle depart="0.1" departLane="0" departPos="13.352861051189915" departSpeed="1.7628519" id="323" type="passenger">
		<route edges="22593 21967"/>
	</vehicle>
	<vehicle depart="0.1" departLane="0" departPos="44.971403665987204" departSpeed="0.035525389" id="33" type="motorcycle">
		<route edges="22052 21968"/>
	</vehicle>
</routes>
