<!-- generated on Tue Feb  9 22:02:18 2021 by Eclipse SUMO netconvert Version 1.8.0
<configuration xmlns:xsi="http://www.w3.org/2001/XMLSchema-instance" xsi:noNamespaceSchemaLocation="http://sumo.dlr.de/xsd/netconvertConfiguration.xsd">

    <input>
        <node-files value="./converted_scenarios/scenario-factory/DEU_BadEssen-2_4_I-1-1/DEU_BadEssen-2_4_I-1-1.nod.xml"/>
        <edge-files value="./converted_scenarios/scenario-factory/DEU_BadEssen-2_4_I-1-1/DEU_BadEssen-2_4_I-1-1.edg.xml"/>
        <connection-files value="./converted_scenarios/scenario-factory/DEU_BadEssen-2_4_I-1-1/DEU_BadEssen-2_4_I-1-1.con.xml"/>
        <tllogic-files value="./converted_scenarios/scenario-factory/DEU_BadEssen-2_4_I-1-1/DEU_BadEssen-2_4_I-1-1.tll.xml"/>
        <type-files value="/home/zen/commonroad-interactive-benchmarks/install/commonroad-map-tool/crmapconverter/sumo_map/templates/DEU.typ.xml"/>
    </input>

    <output>
        <output-file value="./converted_scenarios/scenario-factory/DEU_BadEssen-2_4_I-1-1/DEU_BadEssen-2_4_I-1-1.net.xml"/>
    </output>

    <processing>
        <geometry.remove.keep-edges.explicit value="true"/>
        <geometry.avoid-overlap value="true"/>
        <offset.disable-normalization value="true"/>
    </processing>

    <junctions>
        <no-turnarounds value="true"/>
        <junctions.internal-link-detail value="20"/>
    </junctions>

    <report>
        <aggregate-warnings value="5"/>
    </report>

    <random_number>
        <seed value="1234"/>
    </random_number>

</configuration>
--><net xmlns:xsi="http://www.w3.org/2001/XMLSchema-instance" version="1.6" junctionCornerDetail="5" junctionLinkDetail="20" limitTurnSpeed="5.50" xsi:noNamespaceSchemaLocation="http://sumo.dlr.de/xsd/net_file.xsd">

    <location netOffset="0.00,0.00" convBoundary="913.22,-178.04,1018.83,-88.15" origBoundary="913.22,-178.04,1018.83,-88.15" projParameter="!"/>

    <type id="highway.bridleway" priority="1" speed="2.78" allow="pedestrian" oneway="1" width="2.00"/>
    <type id="highway.bus_guideway" priority="1" speed="27.78" allow="bus" oneway="1"/>
    <type id="highway.cycleway" priority="1" speed="8.33" allow="bicycle" oneway="0" width="1.00"/>
    <type id="highway.footway" priority="1" speed="2.78" allow="pedestrian" oneway="1" width="2.00"/>
    <type id="highway.ford" priority="1" speed="2.78" allow="army" oneway="0"/>
    <type id="highway.living_street" priority="2" speed="2.78" disallow="tram rail_urban rail rail_electric rail_fast ship" oneway="0"/>
    <type id="highway.motorway" priority="14" speed="39.44" allow="private emergency authority army vip passenger hov taxi bus coach delivery truck trailer motorcycle evehicle custom1 custom2" oneway="1"/>
    <type id="highway.motorway_link" priority="9" speed="22.22" allow="private emergency authority army vip passenger hov taxi bus coach delivery truck trailer motorcycle evehicle custom1 custom2" oneway="1"/>
    <type id="highway.path" priority="1" speed="2.78" allow="pedestrian bicycle" oneway="0" width="2.00"/>
    <type id="highway.pedestrian" priority="1" speed="2.78" allow="pedestrian" oneway="1" width="2.00"/>
    <type id="highway.primary" priority="12" speed="27.78" disallow="pedestrian tram rail_urban rail rail_electric rail_fast ship" oneway="0"/>
    <type id="highway.primary_link" priority="7" speed="22.22" disallow="pedestrian tram rail_urban rail rail_electric rail_fast ship" oneway="0"/>
    <type id="highway.raceway" priority="15" speed="83.33" allow="vip" oneway="0"/>
    <type id="highway.residential" priority="3" speed="13.89" disallow="pedestrian tram rail_urban rail rail_electric rail_fast ship" oneway="0"/>
    <type id="highway.secondary" priority="11" speed="27.78" disallow="pedestrian tram rail_urban rail rail_electric rail_fast ship" oneway="0"/>
    <type id="highway.secondary_link" priority="6" speed="22.22" disallow="pedestrian tram rail_urban rail rail_electric rail_fast ship" oneway="0"/>
    <type id="highway.service" priority="1" speed="5.56" allow="pedestrian delivery bicycle" oneway="0"/>
    <type id="highway.stairs" priority="1" speed="1.39" allow="pedestrian" oneway="1" width="2.00"/>
    <type id="highway.step" priority="1" speed="1.39" allow="pedestrian" oneway="1" width="2.00"/>
    <type id="highway.steps" priority="1" speed="1.39" allow="pedestrian" oneway="1" width="2.00"/>
    <type id="highway.tertiary" priority="10" speed="22.22" disallow="pedestrian tram rail_urban rail rail_electric rail_fast ship" oneway="0"/>
    <type id="highway.tertiary_link" priority="5" speed="22.22" disallow="pedestrian tram rail_urban rail rail_electric rail_fast ship" oneway="0"/>
    <type id="highway.track" priority="1" speed="5.56" allow="pedestrian motorcycle moped bicycle" oneway="0"/>
    <type id="highway.trunk" priority="13" speed="27.78" disallow="pedestrian bicycle tram rail_urban rail rail_electric rail_fast ship" oneway="0"/>
    <type id="highway.trunk_link" priority="8" speed="22.22" disallow="pedestrian bicycle tram rail_urban rail rail_electric rail_fast ship" oneway="0"/>
    <type id="highway.unclassified" priority="4" speed="13.89" disallow="pedestrian tram rail_urban rail rail_electric rail_fast ship" oneway="0"/>
    <type id="highway.unsurfaced" priority="1" speed="8.33" disallow="tram rail_urban rail rail_electric rail_fast ship" oneway="0"/>
    <type id="railway.highspeed" priority="21" speed="69.44" allow="rail_fast" oneway="1"/>
    <type id="railway.light_rail" priority="19" speed="27.78" allow="rail_urban" oneway="1"/>
    <type id="railway.preserved" priority="16" speed="27.78" allow="rail" oneway="1"/>
    <type id="railway.rail" priority="20" speed="44.44" allow="rail" oneway="1"/>
    <type id="railway.subway" priority="18" speed="27.78" allow="rail_urban" oneway="1"/>
    <type id="railway.tram" priority="17" speed="13.89" allow="tram" oneway="1"/>

    <edge id=":15_0" function="internal">
        <lane id=":15_0_0" index="0" disallow="pedestrian tram rail_urban rail rail_electric rail_fast ship" speed="36.11" length="3.00" width="3.50" shape="963.51,-107.63 962.80,-110.54"/>
    </edge>
    <edge id=":19_0" function="internal">
        <lane id=":19_0_0" index="0" disallow="pedestrian tram rail_urban rail rail_electric rail_fast ship" speed="10.75" length="29.97" width="3.50" shape="959.34,-124.40 958.68,-126.73 957.86,-128.98 956.85,-131.10 955.60,-133.06 954.90,-133.91 954.14,-134.71 953.31,-135.43 952.41,-136.04 951.47,-136.55 950.47,-136.95 949.42,-137.25 948.34,-137.44 947.23,-137.53 946.10,-137.52 944.98,-137.43 942.66,-137.02 940.38,-136.37 936.98,-135.02"/>
    </edge>
    <edge id=":19_1" function="internal">
        <lane id=":19_1_0" index="0" disallow="pedestrian tram rail_urban rail rail_electric rail_fast ship" speed="36.11" length="41.30" width="3.50" shape="959.34,-124.40 955.79,-138.40 948.92,-164.36"/>
    </edge>
    <edge id=":19_2" function="internal">
        <lane id=":19_2_0" index="0" disallow="pedestrian tram rail_urban rail rail_electric rail_fast ship" speed="12.95" length="36.61" width="3.50" shape="959.34,-124.40 958.60,-128.01 958.22,-131.68 958.21,-134.20 958.45,-136.72 958.98,-139.22 959.84,-141.65 961.04,-143.95 962.56,-146.05 964.34,-147.91 966.33,-149.51 968.46,-150.87 970.70,-152.01 974.14,-153.35"/>
    </edge>
    <edge id=":19_3" function="internal">
        <lane id=":19_3_0" index="0" disallow="pedestrian tram rail_urban rail rail_electric rail_fast ship" speed="12.01" length="31.30" width="3.50" shape="975.24,-150.02 972.23,-148.85 970.30,-147.87 968.48,-146.71 966.80,-145.35 965.32,-143.78 964.06,-142.03 963.08,-140.11 962.37,-138.07 961.93,-135.95 961.73,-133.80 961.74,-131.65 962.08,-128.42 962.74,-125.25"/>
    </edge>
    <edge id=":19_4" function="internal">
        <lane id=":19_4_0" index="0" disallow="pedestrian tram rail_urban rail rail_electric rail_fast ship" speed="36.11" length="41.11" width="3.50" shape="975.24,-150.02 964.57,-146.32 954.01,-142.28 942.64,-137.53 936.98,-135.02"/>
    </edge>
    <edge id=":19_5" function="internal">
        <lane id=":19_5_0" index="0" disallow="pedestrian tram rail_urban rail rail_electric rail_fast ship" speed="12.06" length="34.82" width="3.50" shape="975.24,-150.02 971.37,-148.97 968.73,-148.53 966.06,-148.38 963.39,-148.57 962.07,-148.82 960.79,-149.18 959.53,-149.65 958.33,-150.24 957.19,-150.94 956.12,-151.74 955.12,-152.63 954.20,-153.61 952.59,-155.74 951.26,-158.07 950.18,-160.52 948.92,-164.36"/>
    </edge>
    <edge id=":19_6" function="internal">
        <lane id=":19_6_0" index="0" disallow="pedestrian tram rail_urban rail rail_electric rail_fast ship" speed="11.05" length="29.03" width="3.50" shape="952.30,-165.28 953.39,-161.93 954.31,-159.85 955.43,-157.89 956.78,-156.10 957.50,-155.34 958.30,-154.62 959.16,-153.98 960.06,-153.42 961.01,-152.96 962.01,-152.58 963.04,-152.29 964.07,-152.09 966.30,-151.93 968.54,-152.06 970.78,-152.43 974.14,-153.35"/>
    </edge>
    <edge id=":19_7" function="internal">
        <lane id=":19_7_0" index="0" disallow="pedestrian tram rail_urban rail rail_electric rail_fast ship" speed="36.11" length="41.37" width="3.50" shape="952.30,-165.28 959.18,-139.28 962.74,-125.25"/>
    </edge>
    <edge id=":19_8" function="internal">
        <lane id=":19_8_0" index="0" disallow="pedestrian tram rail_urban rail rail_electric rail_fast ship" speed="13.59" length="37.65" width="3.50" shape="952.30,-165.28 953.11,-161.58 953.42,-159.09 953.50,-156.59 953.34,-154.09 952.89,-151.62 952.15,-149.23 951.11,-146.95 949.80,-144.81 948.24,-142.85 946.48,-141.06 944.56,-139.46 941.45,-137.35 938.14,-135.56 936.98,-135.02"/>
    </edge>
    <edge id=":19_9" function="internal">
        <lane id=":19_9_0" index="0" disallow="pedestrian tram rail_urban rail rail_electric rail_fast ship" speed="12.68" length="32.66" width="3.50" shape="935.54,-138.21 936.55,-138.69 939.52,-140.28 942.28,-142.15 943.95,-143.53 945.47,-145.07 946.81,-146.74 947.93,-148.55 948.81,-150.47 949.45,-152.50 949.83,-154.59 949.98,-156.74 949.91,-158.91 949.65,-161.07 948.92,-164.36"/>
    </edge>
    <edge id=":19_10" function="internal">
        <lane id=":19_10_0" index="0" disallow="pedestrian tram rail_urban rail rail_electric rail_fast ship" speed="36.11" length="41.48" width="3.50" shape="935.54,-138.21 941.25,-140.74 952.72,-145.53 963.37,-149.60 974.14,-153.35"/>
    </edge>
    <edge id=":19_11" function="internal">
        <lane id=":19_11_0" index="0" disallow="pedestrian tram rail_urban rail rail_electric rail_fast ship" speed="11.78" length="36.26" width="3.50" shape="935.54,-138.21 939.45,-139.76 942.13,-140.52 944.87,-141.01 946.26,-141.12 947.65,-141.12 949.04,-141.01 950.42,-140.77 951.76,-140.39 953.05,-139.87 954.27,-139.20 955.42,-138.41 956.48,-137.50 957.44,-136.50 958.32,-135.42 959.81,-133.07 961.02,-130.55 961.97,-127.93 962.74,-125.25"/>
    </edge>
    <edge id=":9_0" function="internal">
        <lane id=":9_0_0" index="0" disallow="pedestrian tram rail_urban rail rail_electric rail_fast ship" speed="36.11" length="3.00" width="3.50" shape="966.20,-111.38 966.91,-108.47"/>
    </edge>

    <edge id="21964" from="19" to="12" priority="3" type="highway.residential" spreadType="center" length="13.23" shape="953.98,-143.97 945.44,-177.12">
        <lane id="21964_0" index="0" disallow="pedestrian tram rail_urban rail rail_electric rail_fast ship" speed="36.11" length="13.23" width="3.50" customShape="1" shape="948.92,-164.36 947.19,-170.72 945.44,-177.12"/>
    </edge>
    <edge id="21965" from="17" to="19" priority="3" type="highway.residential" spreadType="center" length="13.24" shape="948.82,-178.04 957.37,-144.84">
        <lane id="21965_0" index="0" disallow="pedestrian tram rail_urban rail rail_electric rail_fast ship" speed="36.11" length="13.24" width="3.50" customShape="1" shape="948.82,-178.04 950.56,-171.64 952.30,-165.27"/>
    </edge>
    <edge id="21967" from="15" to="19" priority="3" type="highway.residential" spreadType="center" length="14.30" shape="963.17,-109.09 953.94,-144.12">
        <lane id="21967_0" index="0" disallow="pedestrian tram rail_urban rail rail_electric rail_fast ship" speed="36.11" length="14.30" width="3.50" customShape="1" shape="962.80,-110.54 961.25,-116.75 959.34,-124.41"/>
    </edge>
    <edge id="21968" from="19" to="9" priority="3" type="highway.residential" spreadType="center" length="14.30" shape="957.32,-145.01 966.56,-109.93">
        <lane id="21968_0" index="0" disallow="pedestrian tram rail_urban rail rail_electric rail_fast ship" speed="36.11" length="14.30" width="3.50" customShape="1" shape="962.74,-125.25 964.65,-117.60 966.20,-111.38"/>
    </edge>
    <edge id="22049" from="19" to="6" priority="3" type="highway.residential" spreadType="center" length="24.49" shape="956.41,-142.91 914.67,-124.93">
        <lane id="22049_0" index="0" disallow="pedestrian tram rail_urban rail rail_electric rail_fast ship" speed="36.11" length="24.49" width="3.50" customShape="1" shape="936.98,-135.02 925.83,-129.98 914.67,-124.93"/>
    </edge>
    <edge id="22050" from="16" to="19" priority="3" type="highway.residential" spreadType="center" length="24.52" shape="913.22,-128.12 955.02,-146.12">
        <lane id="22050_0" index="0" disallow="pedestrian tram rail_urban rail rail_electric rail_fast ship" speed="36.11" length="24.52" width="3.50" customShape="1" shape="913.22,-128.12 924.39,-133.17 935.56,-138.22"/>
    </edge>
    <edge id="22052" from="13" to="19" priority="3" type="highway.residential" spreadType="center" length="45.89" shape="1018.83,-164.38 956.18,-142.82">
        <lane id="22052_0" index="0" disallow="pedestrian tram rail_urban rail rail_electric rail_fast ship" speed="36.11" length="45.89" width="3.50" customShape="1" shape="1018.83,-164.38 997.04,-157.20 975.24,-150.02"/>
    </edge>
    <edge id="22053" from="19" to="3" priority="3" type="highway.residential" spreadType="center" length="45.89" shape="955.04,-146.13 1017.73,-167.71">
        <lane id="22053_0" index="0" disallow="pedestrian tram rail_urban rail rail_electric rail_fast ship" speed="36.11" length="45.89" width="3.50" customShape="1" shape="974.14,-153.35 995.94,-160.53 1017.73,-167.71"/>
    </edge>
    <edge id="22593" from="18" to="15" priority="3" type="highway.residential" spreadType="center" length="18.93">
        <lane id="22593_0" index="0" disallow="pedestrian tram rail_urban rail rail_electric rail_fast ship" speed="36.11" length="18.93" width="3.50" customShape="1" shape="964.95,-88.90 965.29,-90.90 965.45,-93.96 965.31,-97.03 964.82,-101.09 963.87,-106.11 963.51,-107.63"/>
    </edge>
    <edge id="22924" from="9" to="14" priority="3" type="highway.residential" spreadType="center" length="20.53">
        <lane id="22924_0" index="0" disallow="pedestrian tram rail_urban rail rail_electric rail_fast ship" speed="36.11" length="20.53" width="3.50" customShape="1" shape="966.91,-108.47 967.30,-106.77 968.30,-101.45 968.81,-97.09 968.94,-93.76 968.75,-90.39 968.37,-88.15"/>
    </edge>

    <junction id="12" type="dead_end" x="945.44" y="-177.12" incLanes="21964_0" intLanes="" shape="943.76,-176.66 947.13,-177.58" rightOfWay="edgePriority"/>
    <junction id="13" type="dead_end" x="1018.83" y="-164.38" incLanes="" intLanes="" shape="1018.28,-166.05 1019.38,-162.72" rightOfWay="edgePriority"/>
    <junction id="14" type="dead_end" x="968.37" y="-88.15" incLanes="22924_0" intLanes="" shape="970.09,-87.86 966.64,-88.44" rightOfWay="edgePriority"/>
    <junction id="15" type="priority" x="963.17" y="-109.09" incLanes="22593_0" intLanes=":15_0_0" shape="961.81,-107.23 965.21,-108.04 964.50,-110.96 961.11,-110.12" rightOfWay="edgePriority">
        <request index="0" response="0" foes="0" cont="0"/>
    </junction>
    <junction id="16" type="dead_end" x="913.22" y="-128.12" incLanes="" intLanes="" shape="913.94,-126.53 912.50,-129.72" rightOfWay="edgePriority"/>
    <junction id="17" type="dead_end" x="948.82" y="-178.04" incLanes="" intLanes="" shape="947.13,-177.58 950.51,-178.50" rightOfWay="edgePriority"/>
    <junction id="18" type="dead_end" x="964.95" y="-88.90" incLanes="" intLanes="" shape="966.67,-88.60 963.22,-89.19" rightOfWay="edgePriority"/>
    <junction id="19" type="priority" x="955.65" y="-144.49" incLanes="21967_0 22052_0 21965_0 22050_0" intLanes=":19_0_0 :19_1_0 :19_2_0 :19_3_0 :19_4_0 :19_5_0 :19_6_0 :19_7_0 :19_8_0 :19_9_0 :19_10_0 :19_11_0" shape="957.64,-123.98 964.43,-125.68 963.54,-131.17 963.75,-135.98 965.09,-140.10 967.54,-143.54 971.10,-146.29 975.78,-148.36 973.59,-155.01 968.80,-153.90 964.61,-153.96 961.04,-155.17 958.08,-157.53 955.73,-161.06 953.99,-165.74 947.23,-163.90 948.14,-158.66 947.85,-153.91 946.37,-149.65 943.71,-145.88 939.86,-142.60 934.82,-139.81 937.70,-133.43 942.64,-135.15 946.94,-135.55 950.59,-134.64 953.59,-132.40 955.94,-128.85">
        <request index="0" response="000000000000" foes="000100010000" cont="0"/>
        <request index="1" response="000000000000" foes="111100110000" cont="0"/>
        <request index="2" response="000011000000" foes="110011110000" cont="0"/>
        <request index="3" response="000010000000" foes="100010000000" cont="0"/>
        <request index="4" response="000110000111" foes="100110000111" cont="0"/>
        <request index="5" response="011110000110" foes="011110000110" cont="0"/>
        <request index="6" response="000000000000" foes="010000000100" cont="0"/>
        <request index="7" response="000000000000" foes="110000111100" cont="0"/>
        <request index="8" response="000000000011" foes="110000110011" cont="0"/>
        <request index="9" response="000000000010" foes="000000100010" cont="0"/>
        <request index="10" response="000111000110" foes="000111100110" cont="0"/>
        <request index="11" response="000110011110" foes="000110011110" cont="0"/>
    </junction>
    <junction id="3" type="dead_end" x="1017.73" y="-167.71" incLanes="22053_0" intLanes="" shape="1017.19,-169.37 1018.28,-166.05" rightOfWay="edgePriority"/>
    <junction id="6" type="dead_end" x="914.67" y="-124.93" incLanes="22049_0" intLanes="" shape="915.39,-123.34 913.94,-126.53" rightOfWay="edgePriority"/>
    <junction id="9" type="priority" x="966.56" y="-109.93" incLanes="21968_0" intLanes=":9_0_0" shape="965.20,-108.07 968.61,-108.87 967.90,-111.80 964.50,-110.95" rightOfWay="edgePriority">
        <request index="0" response="0" foes="0" cont="0"/>
    </junction>

    <connection from="21965" to="22053" fromLane="0" toLane="0" contPos="-4.00" shape="952.30,-165.27 953.39,-161.93 954.31,-159.85 955.43,-157.89 956.78,-156.10 957.50,-155.34 958.30,-154.62 959.16,-153.98 960.06,-153.42 961.01,-152.96 962.01,-152.58 963.04,-152.29 964.07,-152.09 966.30,-151.93 968.54,-152.06 970.78,-152.43 974.14,-153.35" via=":19_6_0" dir="r" state="M"/>
    <connection from="21965" to="21968" fromLane="0" toLane="0" contPos="-4.00" shape="952.30,-165.27 959.18,-139.28 962.74,-125.25" via=":19_7_0" dir="s" state="M"/>
    <connection from="21965" to="22049" fromLane="0" toLane="0" contPos="-4.00" shape="952.30,-165.27 953.11,-161.58 953.42,-159.09 953.50,-156.59 953.34,-154.09 952.89,-151.62 952.15,-149.23 951.11,-146.95 949.80,-144.81 948.24,-142.85 946.48,-141.06 944.56,-139.46 941.45,-137.35 938.14,-135.56 936.98,-135.02" via=":19_8_0" dir="l" state="m"/>
    <connection from="21967" to="22049" fromLane="0" toLane="0" contPos="-4.00" shape="959.34,-124.41 958.68,-126.73 957.86,-128.98 956.85,-131.10 955.60,-133.06 954.90,-133.91 954.14,-134.71 953.31,-135.43 952.41,-136.04 951.47,-136.55 950.47,-136.95 949.42,-137.25 948.34,-137.44 947.23,-137.53 946.10,-137.52 944.98,-137.43 942.66,-137.02 940.38,-136.37 936.98,-135.02" via=":19_0_0" dir="r" state="M"/>
    <connection from="21967" to="21964" fromLane="0" toLane="0" contPos="-4.00" shape="959.34,-124.41 955.79,-138.40 948.92,-164.36" via=":19_1_0" dir="s" state="M"/>
    <connection from="21967" to="22053" fromLane="0" toLane="0" contPos="-4.00" shape="959.34,-124.41 958.60,-128.01 958.22,-131.68 958.21,-134.20 958.45,-136.72 958.98,-139.22 959.84,-141.65 961.04,-143.95 962.56,-146.05 964.34,-147.91 966.33,-149.51 968.46,-150.87 970.70,-152.01 974.14,-153.35" via=":19_2_0" dir="l" state="m"/>
    <connection from="21968" to="22924" fromLane="0" toLane="0" contPos="-4.00" via=":9_0_0" dir="s" state="M"/>
    <connection from="22050" to="21964" fromLane="0" toLane="0" contPos="-4.00" shape="935.56,-138.22 936.55,-138.69 939.52,-140.28 942.28,-142.15 943.95,-143.53 945.47,-145.07 946.81,-146.74 947.93,-148.55 948.81,-150.47 949.45,-152.50 949.83,-154.59 949.98,-156.74 949.91,-158.91 949.65,-161.07 948.92,-164.36" via=":19_9_0" dir="r" state="m"/>
    <connection from="22050" to="22053" fromLane="0" toLane="0" contPos="-4.00" shape="935.56,-138.22 941.25,-140.74 952.72,-145.53 963.37,-149.60 974.14,-153.35" via=":19_10_0" dir="s" state="m"/>
    <connection from="22050" to="21968" fromLane="0" toLane="0" contPos="-4.00" shape="935.56,-138.22 939.45,-139.76 942.13,-140.52 944.87,-141.01 946.26,-141.12 947.65,-141.12 949.04,-141.01 950.42,-140.77 951.76,-140.39 953.05,-139.87 954.27,-139.20 955.42,-138.41 956.48,-137.50 957.44,-136.50 958.32,-135.42 959.81,-133.07 961.02,-130.55 961.97,-127.93 962.74,-125.25" via=":19_11_0" dir="l" state="m"/>
    <connection from="22052" to="21968" fromLane="0" toLane="0" contPos="-4.00" shape="975.24,-150.02 972.23,-148.85 970.30,-147.87 968.48,-146.71 966.80,-145.35 965.32,-143.78 964.06,-142.03 963.08,-140.11 962.37,-138.07 961.93,-135.95 961.73,-133.80 961.74,-131.65 962.08,-128.42 962.74,-125.25" via=":19_3_0" dir="r" state="m"/>
    <connection from="22052" to="22049" fromLane="0" toLane="0" contPos="-4.00" shape="975.24,-150.02 964.57,-146.32 954.01,-142.28 942.64,-137.53 936.98,-135.02" via=":19_4_0" dir="s" state="m"/>
    <connection from="22052" to="21964" fromLane="0" toLane="0" contPos="-4.00" shape="975.24,-150.02 971.37,-148.97 968.73,-148.53 966.06,-148.38 963.39,-148.57 962.07,-148.82 960.79,-149.18 959.53,-149.65 958.33,-150.24 957.19,-150.94 956.12,-151.74 955.12,-152.63 954.20,-153.61 952.59,-155.74 951.26,-158.07 950.18,-160.52 948.92,-164.36" via=":19_5_0" dir="l" state="m"/>
    <connection from="22593" to="21967" fromLane="0" toLane="0" contPos="-4.00" via=":15_0_0" dir="s" state="M"/>

    <connection from=":15_0" to="21967" fromLane="0" toLane="0" dir="s" state="M"/>
    <connection from=":19_0" to="22049" fromLane="0" toLane="0" dir="r" state="M"/>
    <connection from=":19_1" to="21964" fromLane="0" toLane="0" dir="s" state="M"/>
    <connection from=":19_2" to="22053" fromLane="0" toLane="0" dir="l" state="M"/>
    <connection from=":19_3" to="21968" fromLane="0" toLane="0" dir="r" state="M"/>
    <connection from=":19_4" to="22049" fromLane="0" toLane="0" dir="s" state="M"/>
    <connection from=":19_5" to="21964" fromLane="0" toLane="0" dir="l" state="M"/>
    <connection from=":19_6" to="22053" fromLane="0" toLane="0" dir="r" state="M"/>
    <connection from=":19_7" to="21968" fromLane="0" toLane="0" dir="s" state="M"/>
    <connection from=":19_8" to="22049" fromLane="0" toLane="0" dir="l" state="M"/>
    <connection from=":19_9" to="21964" fromLane="0" toLane="0" dir="r" state="M"/>
    <connection from=":19_10" to="22053" fromLane="0" toLane="0" dir="s" state="M"/>
    <connection from=":19_11" to="21968" fromLane="0" toLane="0" dir="l" state="M"/>
    <connection from=":9_0" to="22924" fromLane="0" toLane="0" dir="s" state="M"/>

</net>