<routes>
	<vehicle depart="0.1" departLane="0" departPos="71.74119424119823" departSpeed="5.1864458" id="1" type="passenger">
		<route edges="50201 50213 50197"/>
	</vehicle>
	<vehicle depart="0.1" departLane="0" departPos="97.03645123039408" departSpeed="1.9359603" id="2" type="passenger">
		<route edges="50195 50211 50199"/>
	</vehicle>
	<vehicle depart="0.1" departLane="0" departPos="147.39860643026364" departSpeed="2.9688359" id="4" type="passenger">
		<route edges="50205 50217 50199"/>
	</vehicle>
	<vehicle depart="0.1" departLane="0" departPos="155.39876727216296" departSpeed="2.9697258" id="5" type="passenger">
		<route edges="50205 50217 50199"/>
	</vehicle>
	<vehicle depart="0.1" departLane="0" departPos="44.384971455697034" departSpeed="2.0748294" id="7" type="passenger">
		<route edges="50201 50213 50197"/>
	</vehicle>
</routes>
