<routes>
	<vehicle depart="0.1" departLane="0" departPos="33.76003601770994" departSpeed="1.5757322" id="365" type="bicycle">
		<route edges="110 161"/>
	</vehicle>
	<vehicle depart="0.1" departLane="0" departPos="10.828423869353818" departSpeed="4.1407677" id="317" type="passenger">
		<route edges=":71_3 168"/>
	</vehicle>
	<vehicle depart="0.1" departLane="0" departPos="69.73145587605612" departSpeed="0.49794574" id="330" type="passenger">
		<route edges="110 161"/>
	</vehicle>
	<vehicle depart="0.1" departLane="0" departPos="57.06155213624876" departSpeed="1.2417148" id="337" type="passenger">
		<route edges="110 161"/>
	</vehicle>
	<vehicle depart="0.1" departLane="0" departPos="33.75147868879981" departSpeed="3.325359" id="338" type="passenger">
		<route edges=":76_2 162 111"/>
	</vehicle>
	<vehicle depart="0.1" departLane="0" departPos="19.903510212347538" departSpeed="1.5288962" id="3104" type="passenger">
		<route edges="168 137"/>
	</vehicle>
	<vehicle depart="0.1" departLane="0" departPos="19.686502361848923" departSpeed="0.017383807" id="3113" type="passenger">
		<route edges=":71_6 161"/>
	</vehicle>
	<vehicle depart="0.1" departLane="0" departPos="36.04227188289075" departSpeed="17.437757" id="3120" type="passenger">
		<route edges=":76_4 38"/>
	</vehicle>
	<vehicle depart="0.1" departLane="0" departPos="44.91686856645823" departSpeed="1.5623325" id="360" type="truck">
		<route edges="110 161"/>
	</vehicle>
	<vehicle depart="0.1" departLane="0" departPos="25.685567842952548" departSpeed="2.2772863" id="3110" type="truck">
		<route edges=":71_3 168"/>
	</vehicle>
</routes>
