<!-- generated on Tue Feb  9 22:23:49 2021 by Eclipse SUMO netconvert Version 1.8.0
<configuration xmlns:xsi="http://www.w3.org/2001/XMLSchema-instance" xsi:noNamespaceSchemaLocation="http://sumo.dlr.de/xsd/netconvertConfiguration.xsd">

    <input>
        <node-files value="./converted_scenarios/scenario-factory/DEU_Guetersloh-24_5_I-1-1/DEU_Guetersloh-24_5_I-1-1.nod.xml"/>
        <edge-files value="./converted_scenarios/scenario-factory/DEU_Guetersloh-24_5_I-1-1/DEU_Guetersloh-24_5_I-1-1.edg.xml"/>
        <connection-files value="./converted_scenarios/scenario-factory/DEU_Guetersloh-24_5_I-1-1/DEU_Guetersloh-24_5_I-1-1.con.xml"/>
        <tllogic-files value="./converted_scenarios/scenario-factory/DEU_Guetersloh-24_5_I-1-1/DEU_Guetersloh-24_5_I-1-1.tll.xml"/>
        <type-files value="/home/zen/commonroad-interactive-benchmarks/install/commonroad-map-tool/crmapconverter/sumo_map/templates/DEU.typ.xml"/>
    </input>

    <output>
        <output-file value="./converted_scenarios/scenario-factory/DEU_Guetersloh-24_5_I-1-1/DEU_Guetersloh-24_5_I-1-1.net.xml"/>
    </output>

    <processing>
        <geometry.remove.keep-edges.explicit value="true"/>
        <geometry.avoid-overlap value="true"/>
        <offset.disable-normalization value="true"/>
    </processing>

    <junctions>
        <no-turnarounds value="true"/>
        <junctions.internal-link-detail value="20"/>
    </junctions>

    <report>
        <aggregate-warnings value="5"/>
    </report>

    <random_number>
        <seed value="1234"/>
    </random_number>

</configuration>
--><net xmlns:xsi="http://www.w3.org/2001/XMLSchema-instance" version="1.6" junctionCornerDetail="5" junctionLinkDetail="20" limitTurnSpeed="5.50" xsi:noNamespaceSchemaLocation="http://sumo.dlr.de/xsd/net_file.xsd">

    <location netOffset="0.00,0.00" convBoundary="248.71,-539.47,476.48,-275.43" origBoundary="248.71,-539.47,476.48,-275.43" projParameter="!"/>

    <type id="highway.bridleway" priority="1" speed="2.78" allow="pedestrian" oneway="1" width="2.00"/>
    <type id="highway.bus_guideway" priority="1" speed="27.78" allow="bus" oneway="1"/>
    <type id="highway.cycleway" priority="1" speed="8.33" allow="bicycle" oneway="0" width="1.00"/>
    <type id="highway.footway" priority="1" speed="2.78" allow="pedestrian" oneway="1" width="2.00"/>
    <type id="highway.ford" priority="1" speed="2.78" allow="army" oneway="0"/>
    <type id="highway.living_street" priority="2" speed="2.78" disallow="tram rail_urban rail rail_electric rail_fast ship" oneway="0"/>
    <type id="highway.motorway" priority="14" speed="39.44" allow="private emergency authority army vip passenger hov taxi bus coach delivery truck trailer motorcycle evehicle custom1 custom2" oneway="1"/>
    <type id="highway.motorway_link" priority="9" speed="22.22" allow="private emergency authority army vip passenger hov taxi bus coach delivery truck trailer motorcycle evehicle custom1 custom2" oneway="1"/>
    <type id="highway.path" priority="1" speed="2.78" allow="pedestrian bicycle" oneway="0" width="2.00"/>
    <type id="highway.pedestrian" priority="1" speed="2.78" allow="pedestrian" oneway="1" width="2.00"/>
    <type id="highway.primary" priority="12" speed="27.78" disallow="pedestrian tram rail_urban rail rail_electric rail_fast ship" oneway="0"/>
    <type id="highway.primary_link" priority="7" speed="22.22" disallow="pedestrian tram rail_urban rail rail_electric rail_fast ship" oneway="0"/>
    <type id="highway.raceway" priority="15" speed="83.33" allow="vip" oneway="0"/>
    <type id="highway.residential" priority="3" speed="13.89" disallow="pedestrian tram rail_urban rail rail_electric rail_fast ship" oneway="0"/>
    <type id="highway.secondary" priority="11" speed="27.78" disallow="pedestrian tram rail_urban rail rail_electric rail_fast ship" oneway="0"/>
    <type id="highway.secondary_link" priority="6" speed="22.22" disallow="pedestrian tram rail_urban rail rail_electric rail_fast ship" oneway="0"/>
    <type id="highway.service" priority="1" speed="5.56" allow="pedestrian delivery bicycle" oneway="0"/>
    <type id="highway.stairs" priority="1" speed="1.39" allow="pedestrian" oneway="1" width="2.00"/>
    <type id="highway.step" priority="1" speed="1.39" allow="pedestrian" oneway="1" width="2.00"/>
    <type id="highway.steps" priority="1" speed="1.39" allow="pedestrian" oneway="1" width="2.00"/>
    <type id="highway.tertiary" priority="10" speed="22.22" disallow="pedestrian tram rail_urban rail rail_electric rail_fast ship" oneway="0"/>
    <type id="highway.tertiary_link" priority="5" speed="22.22" disallow="pedestrian tram rail_urban rail rail_electric rail_fast ship" oneway="0"/>
    <type id="highway.track" priority="1" speed="5.56" allow="pedestrian motorcycle moped bicycle" oneway="0"/>
    <type id="highway.trunk" priority="13" speed="27.78" disallow="pedestrian bicycle tram rail_urban rail rail_electric rail_fast ship" oneway="0"/>
    <type id="highway.trunk_link" priority="8" speed="22.22" disallow="pedestrian bicycle tram rail_urban rail rail_electric rail_fast ship" oneway="0"/>
    <type id="highway.unclassified" priority="4" speed="13.89" disallow="pedestrian tram rail_urban rail rail_electric rail_fast ship" oneway="0"/>
    <type id="highway.unsurfaced" priority="1" speed="8.33" disallow="tram rail_urban rail rail_electric rail_fast ship" oneway="0"/>
    <type id="railway.highspeed" priority="21" speed="69.44" allow="rail_fast" oneway="1"/>
    <type id="railway.light_rail" priority="19" speed="27.78" allow="rail_urban" oneway="1"/>
    <type id="railway.preserved" priority="16" speed="27.78" allow="rail" oneway="1"/>
    <type id="railway.rail" priority="20" speed="44.44" allow="rail" oneway="1"/>
    <type id="railway.subway" priority="18" speed="27.78" allow="rail_urban" oneway="1"/>
    <type id="railway.tram" priority="17" speed="13.89" allow="tram" oneway="1"/>

    <edge id=":37_0" function="internal">
        <lane id=":37_0_0" index="0" disallow="pedestrian tram rail_urban rail rail_electric rail_fast ship" speed="36.11" length="38.34" width="3.50" shape="386.47,-445.88 367.32,-445.04 348.17,-444.20"/>
    </edge>
    <edge id=":37_1" function="internal">
        <lane id=":37_1_0" index="0" disallow="pedestrian tram rail_urban rail rail_electric rail_fast ship" speed="12.16" length="34.69" width="3.50" shape="386.47,-445.88 382.61,-445.92 379.99,-446.22 377.40,-446.79 374.89,-447.68 373.64,-448.29 372.46,-448.99 371.33,-449.80 370.29,-450.71 369.33,-451.71 368.46,-452.79 367.70,-453.93 367.02,-455.15 366.00,-457.60 365.29,-460.16 364.84,-462.75 364.58,-466.60"/>
    </edge>
    <edge id=":37_2" function="internal">
        <lane id=":37_2_0" index="0" disallow="pedestrian tram rail_urban rail rail_electric rail_fast ship" speed="11.15" length="29.00" width="3.50" shape="368.08,-466.66 368.31,-463.32 368.68,-461.12 369.28,-458.97 370.14,-456.91 370.68,-455.94 371.30,-455.01 372.00,-454.14 372.77,-453.33 373.61,-452.60 374.52,-451.95 375.48,-451.38 376.48,-450.89 378.58,-450.14 380.76,-449.66 382.98,-449.41 386.32,-449.38"/>
    </edge>
    <edge id=":37_3" function="internal">
        <lane id=":37_3_0" index="0" disallow="pedestrian tram rail_urban rail rail_electric rail_fast ship" speed="12.32" length="34.11" width="3.50" shape="368.08,-466.66 367.95,-462.73 367.62,-460.12 367.05,-457.57 366.19,-455.09 365.01,-452.75 364.28,-451.65 363.48,-450.62 362.58,-449.66 361.61,-448.78 360.57,-447.98 359.47,-447.26 357.13,-446.09 354.65,-445.23 352.10,-444.65 349.50,-444.30 348.17,-444.20"/>
    </edge>
    <edge id=":37_4" function="internal">
        <lane id=":37_4_0" index="0" disallow="pedestrian tram rail_urban rail rail_electric rail_fast ship" speed="11.33" length="28.67" width="3.50" shape="347.98,-447.69 349.11,-447.78 351.37,-448.08 353.55,-448.57 355.62,-449.30 357.58,-450.29 358.45,-450.86 359.29,-451.51 360.07,-452.23 360.79,-453.00 361.44,-453.84 362.01,-454.71 363.00,-456.67 363.71,-458.75 364.19,-460.92 364.47,-463.15 364.58,-466.60"/>
    </edge>
    <edge id=":37_5" function="internal">
        <lane id=":37_5_0" index="0" disallow="pedestrian tram rail_urban rail rail_electric rail_fast ship" speed="36.11" length="38.38" width="3.50" shape="347.98,-447.69 367.16,-448.54 386.32,-449.38"/>
    </edge>
    <edge id=":38_0" function="internal">
        <lane id=":38_0_0" index="0" disallow="pedestrian tram rail_urban rail rail_electric rail_fast ship" speed="17.37" length="32.25" width="3.50" shape="458.38,-372.53 457.69,-373.15 456.14,-374.31 454.49,-375.27 451.78,-376.47 448.93,-377.36 445.98,-378.00 441.94,-378.53 437.85,-378.78 432.68,-378.76 427.52,-378.47"/>
    </edge>
    <edge id=":38_1" function="internal">
        <lane id=":38_1_0" index="0" disallow="pedestrian tram rail_urban rail rail_electric rail_fast ship" speed="20.80" length="33.62" width="3.50" shape="458.38,-372.53 455.23,-375.73 452.32,-379.14 449.69,-382.77 447.94,-385.64 446.40,-388.62 445.10,-391.72 444.06,-394.92 443.30,-398.19 442.81,-401.52"/>
    </edge>
    <edge id=":38_2" function="internal">
        <lane id=":38_2_0" index="0" disallow="pedestrian tram rail_urban rail rail_electric rail_fast ship" speed="20.06" length="31.15" width="3.50" shape="446.29,-401.88 446.74,-398.82 447.45,-395.81 448.41,-392.88 449.61,-390.03 451.04,-387.27 452.66,-384.62 455.12,-381.24 457.84,-378.06 460.80,-375.06"/>
    </edge>
    <edge id=":38_3" function="internal">
        <lane id=":38_3_0" index="0" disallow="pedestrian tram rail_urban rail rail_electric rail_fast ship" speed="12.16" length="34.50" width="3.50" shape="446.29,-401.88 446.47,-399.32 446.47,-396.74 446.24,-394.14 445.72,-391.54 444.87,-389.03 444.27,-387.77 443.59,-386.59 442.80,-385.46 441.90,-384.41 440.92,-383.44 439.86,-382.57 438.74,-381.80 437.54,-381.11 435.13,-380.04 432.61,-379.27 430.06,-378.76 427.52,-378.47"/>
    </edge>
    <edge id=":38_4" function="internal">
        <lane id=":38_4_0" index="0" disallow="pedestrian tram rail_urban rail rail_electric rail_fast ship" speed="11.15" length="28.84" width="3.50" shape="427.23,-381.95 429.43,-382.21 431.61,-382.65 433.73,-383.29 435.75,-384.20 436.71,-384.75 437.62,-385.39 438.48,-386.09 439.27,-386.87 439.98,-387.72 440.62,-388.63 441.17,-389.59 441.64,-390.60 442.35,-392.70 442.77,-394.87 442.97,-397.08 442.97,-399.30 442.81,-401.52"/>
    </edge>
    <edge id=":38_5" function="internal">
        <lane id=":38_5_0" index="0" disallow="pedestrian tram rail_urban rail rail_electric rail_fast ship" speed="18.12" length="35.21" width="3.50" shape="427.23,-381.95 432.72,-382.26 438.22,-382.26 442.61,-381.98 446.96,-381.36 450.18,-380.63 453.32,-379.62 456.32,-378.26 458.21,-377.13 459.96,-375.81 460.80,-375.06"/>
    </edge>
    <edge id=":39_0" function="internal">
        <lane id=":39_0_0" index="0" disallow="pedestrian tram rail_urban rail rail_electric rail_fast ship" speed="11.36" length="28.55" width="3.50" shape="440.14,-431.04 439.87,-433.31 439.44,-435.52 438.81,-437.64 437.95,-439.64 436.82,-441.50 436.19,-442.31 435.48,-443.09 434.71,-443.80 433.88,-444.44 433.02,-445.01 431.07,-445.98 429.01,-446.66 426.85,-447.11 424.63,-447.34 421.18,-447.36"/>
    </edge>
    <edge id=":39_1" function="internal">
        <lane id=":39_1_0" index="0" disallow="pedestrian tram rail_urban rail rail_electric rail_fast ship" speed="36.11" length="38.44" width="3.50" shape="440.14,-431.04 438.82,-449.70 437.82,-469.41"/>
    </edge>
    <edge id=":39_2" function="internal">
        <lane id=":39_2_0" index="0" disallow="pedestrian tram rail_urban rail rail_electric rail_fast ship" speed="36.11" length="38.29" width="3.50" shape="441.31,-469.56 442.32,-449.91 443.62,-431.34"/>
    </edge>
    <edge id=":39_3" function="internal">
        <lane id=":39_3_0" index="0" disallow="pedestrian tram rail_urban rail rail_electric rail_fast ship" speed="12.22" length="34.38" width="3.50" shape="441.31,-469.56 441.28,-465.57 440.99,-462.95 440.44,-460.37 439.58,-457.87 439.02,-456.68 438.37,-455.53 437.62,-454.44 436.79,-453.42 435.86,-452.47 434.86,-451.62 433.79,-450.85 431.48,-449.57 429.01,-448.63 426.45,-447.98 423.84,-447.57 421.18,-447.36"/>
    </edge>
    <edge id=":39_4" function="internal">
        <lane id=":39_4_0" index="0" disallow="pedestrian tram rail_urban rail rail_electric rail_fast ship" speed="11.22" length="28.80" width="3.50" shape="421.03,-450.86 423.35,-451.04 425.59,-451.39 427.76,-451.94 429.82,-452.72 431.74,-453.79 432.57,-454.39 433.38,-455.08 434.12,-455.84 434.79,-456.66 435.39,-457.53 435.91,-458.47 436.36,-459.42 437.08,-461.52 437.54,-463.70 437.79,-465.93 437.82,-469.41"/>
    </edge>
    <edge id=":39_5" function="internal">
        <lane id=":39_5_0" index="0" disallow="pedestrian tram rail_urban rail rail_electric rail_fast ship" speed="12.35" length="33.97" width="3.50" shape="421.03,-450.86 424.98,-450.83 427.57,-450.55 430.13,-450.03 432.60,-449.20 434.94,-448.03 436.03,-447.32 437.06,-446.51 438.02,-445.63 438.90,-444.66 439.70,-443.63 441.04,-441.40 442.07,-439.00 442.82,-436.50 443.32,-433.93 443.62,-431.34"/>
    </edge>
    <edge id=":40_0" function="internal">
        <lane id=":40_0_0" index="0" disallow="pedestrian tram rail_urban rail rail_electric rail_fast ship" speed="13.35" length="30.63" width="3.50" shape="355.20,-369.57 353.19,-368.95 351.27,-368.08 349.48,-366.95 347.87,-365.59 346.44,-364.03 345.20,-362.32 344.14,-360.50 342.84,-357.61 341.85,-354.60 341.10,-351.52 340.42,-347.35 340.19,-345.24"/>
    </edge>
    <edge id=":40_1" function="internal">
        <lane id=":40_1_0" index="0" disallow="pedestrian tram rail_urban rail rail_electric rail_fast ship" speed="36.11" length="39.27" width="3.50" shape="355.20,-369.57 330.13,-363.40 317.12,-359.99"/>
    </edge>
    <edge id=":40_2" function="internal">
        <lane id=":40_2_0" index="0" disallow="pedestrian tram rail_urban rail rail_electric rail_fast ship" speed="36.11" length="39.36" width="3.50" shape="316.18,-363.36 329.26,-366.79 354.35,-372.96"/>
    </edge>
    <edge id=":40_3" function="internal">
        <lane id=":40_3_0" index="0" disallow="pedestrian tram rail_urban rail rail_electric rail_fast ship" speed="14.24" length="34.94" width="3.50" shape="336.70,-345.57 336.96,-347.91 337.73,-352.48 338.59,-355.92 339.74,-359.29 341.25,-362.53 342.51,-364.63 343.99,-366.58 345.70,-368.37 347.63,-369.94 349.75,-371.24 352.02,-372.25 354.35,-372.96"/>
    </edge>

    <edge id="77140" from="38" to="22" priority="3" type="highway.residential" spreadType="center" length="70.00" shape="445.45,-385.91 476.48,-307.84">
        <lane id="77140_0" index="0" disallow="pedestrian tram rail_urban rail rail_electric rail_fast ship" speed="36.11" length="70.00" width="3.50" customShape="1" shape="460.80,-375.06 461.52,-374.35 463.18,-372.40 464.59,-370.24 465.92,-367.47 467.62,-362.61 469.66,-355.71 471.47,-348.21 473.02,-340.13 474.36,-330.97 475.51,-320.24 476.48,-307.84"/>
    </edge>
    <edge id="77141" from="30" to="38" priority="3" type="highway.residential" spreadType="center" length="70.06" shape="473.19,-305.02 442.20,-384.63">
        <lane id="77141_0" index="0" disallow="pedestrian tram rail_urban rail rail_electric rail_fast ship" speed="36.11" length="70.06" width="3.50" customShape="1" shape="473.19,-305.02 472.06,-319.51 470.95,-330.03 469.66,-338.99 468.17,-346.88 466.44,-354.19 464.48,-360.92 462.89,-365.61 461.73,-368.18 460.51,-370.12 459.02,-371.90 458.34,-372.57"/>
    </edge>
    <edge id="77295" from="37" to="39" priority="3" type="highway.residential" spreadType="center" length="34.75" shape="367.02,-455.15 434.32,-451.67">
        <lane id="77295_0" index="0" disallow="pedestrian tram rail_urban rail rail_electric rail_fast ship" speed="36.11" length="34.75" width="3.50" customShape="1" shape="386.32,-449.38 403.69,-450.12 421.04,-450.86"/>
    </edge>
    <edge id="77296" from="39" to="37" priority="3" type="highway.residential" spreadType="center" length="34.77" shape="434.14,-448.18 366.84,-451.66">
        <lane id="77296_0" index="0" disallow="pedestrian tram rail_urban rail rail_electric rail_fast ship" speed="36.11" length="34.77" width="3.50" customShape="1" shape="421.18,-447.36 403.84,-446.62 386.44,-445.88"/>
    </edge>
    <edge id="77298" from="29" to="37" priority="3" type="highway.residential" spreadType="center" length="70.03" shape="278.17,-449.24 366.85,-455.15">
        <lane id="77298_0" index="0" disallow="pedestrian tram rail_urban rail rail_electric rail_fast ship" speed="36.11" length="70.03" width="3.50" customShape="1" shape="278.17,-449.24 278.49,-449.25 287.58,-449.36 295.66,-449.10 298.67,-448.84 303.64,-447.93 307.62,-447.23 312.66,-446.90 321.24,-446.70 331.34,-446.87 348.00,-447.70"/>
    </edge>
    <edge id="77299" from="37" to="17" priority="3" type="highway.residential" spreadType="center" length="69.99" shape="367.08,-451.66 278.37,-445.74">
        <lane id="77299_0" index="0" disallow="pedestrian tram rail_urban rail rail_electric rail_fast ship" speed="36.11" length="69.99" width="3.50" customShape="1" shape="348.17,-444.20 331.50,-443.37 321.34,-443.20 312.69,-443.40 307.53,-443.73 303.42,-444.40 298.53,-445.33 295.66,-445.60 287.67,-445.86 278.65,-445.76 278.37,-445.74"/>
    </edge>
    <edge id="77487" from="39" to="7" priority="3" type="highway.residential" spreadType="center" length="70.00" shape="432.44,-449.94 434.89,-539.35">
        <lane id="77487_0" index="0" disallow="pedestrian tram rail_urban rail rail_electric rail_fast ship" speed="36.11" length="70.00" width="3.50" customShape="1" shape="437.82,-469.41 436.24,-507.18 434.89,-539.35"/>
    </edge>
    <edge id="77488" from="24" to="39" priority="3" type="highway.residential" spreadType="center" length="70.00" shape="438.39,-539.47 435.93,-449.84">
        <lane id="77488_0" index="0" disallow="pedestrian tram rail_urban rail rail_electric rail_fast ship" speed="36.11" length="70.00" width="3.50" customShape="1" shape="438.39,-539.47 439.73,-507.33 441.31,-469.53"/>
    </edge>
    <edge id="77490" from="38" to="39" priority="3" type="highway.residential" spreadType="center" length="29.64" shape="442.11,-384.98 432.45,-449.72">
        <lane id="77490_0" index="0" disallow="pedestrian tram rail_urban rail rail_electric rail_fast ship" speed="36.11" length="29.64" width="3.50" customShape="1" shape="442.81,-401.52 442.05,-409.15 440.13,-431.04"/>
    </edge>
    <edge id="77491" from="39" to="38" priority="3" type="highway.residential" spreadType="center" length="29.60" shape="435.91,-450.23 445.57,-385.49">
        <lane id="77491_0" index="0" disallow="pedestrian tram rail_urban rail rail_electric rail_fast ship" speed="36.11" length="29.60" width="3.50" customShape="1" shape="443.62,-431.34 445.54,-409.48 446.30,-401.86"/>
    </edge>
    <edge id="77557" from="37" to="16" priority="3" type="highway.residential" spreadType="center" length="70.00" shape="365.19,-453.18 356.41,-535.81">
        <lane id="77557_0" index="0" disallow="pedestrian tram rail_urban rail rail_electric rail_fast ship" speed="36.11" length="70.00" width="3.50" customShape="1" shape="364.58,-466.60 364.35,-479.35 363.90,-491.57 363.19,-501.23 362.21,-509.84 361.46,-514.37 360.46,-518.32 357.71,-527.61 356.85,-531.59 356.42,-535.14 356.41,-535.81"/>
    </edge>
    <edge id="77558" from="28" to="37" priority="3" type="highway.residential" spreadType="center" length="70.00" shape="359.92,-535.87 368.67,-453.55">
        <lane id="77558_0" index="0" disallow="pedestrian tram rail_urban rail rail_electric rail_fast ship" speed="36.11" length="70.00" width="3.50" customShape="1" shape="359.92,-535.87 359.97,-534.69 360.45,-531.36 361.35,-527.54 364.08,-518.34 365.04,-514.31 365.75,-509.72 366.72,-501.11 367.41,-491.47 367.86,-479.31 368.08,-466.66"/>
    </edge>
    <edge id="77651" from="40" to="33" priority="3" type="highway.residential" spreadType="center" length="69.99" shape="338.38,-359.42 335.27,-275.43">
        <lane id="77651_0" index="0" disallow="pedestrian tram rail_urban rail rail_electric rail_fast ship" speed="36.11" length="69.99" width="3.50" customShape="1" shape="340.19,-345.24 338.87,-332.68 335.27,-275.43"/>
    </edge>
    <edge id="77652" from="36" to="40" priority="3" type="highway.residential" spreadType="center" length="70.03" shape="331.78,-275.76 334.88,-359.55">
        <lane id="77652_0" index="0" disallow="pedestrian tram rail_urban rail rail_electric rail_fast ship" speed="36.11" length="70.03" width="3.50" customShape="1" shape="331.78,-275.76 335.38,-332.98 336.71,-345.61"/>
    </edge>
    <edge id="77691" from="40" to="38" priority="3" type="highway.residential" spreadType="center" length="73.51" shape="336.20,-361.15 443.43,-386.93">
        <lane id="77691_0" index="0" disallow="pedestrian tram rail_urban rail rail_electric rail_fast ship" speed="36.11" length="73.51" width="3.50" customShape="1" shape="354.35,-372.96 355.38,-373.21 363.80,-375.03 372.29,-376.45 384.84,-378.14 399.45,-379.68 427.23,-381.95"/>
    </edge>
    <edge id="77692" from="38" to="40" priority="3" type="highway.residential" spreadType="center" length="72.97" shape="444.25,-383.53 337.01,-357.75">
        <lane id="77692_0" index="0" disallow="pedestrian tram rail_urban rail rail_electric rail_fast ship" speed="36.11" length="72.97" width="3.50" customShape="1" shape="427.52,-378.47 399.86,-376.20 385.35,-374.68 372.89,-373.00 364.50,-371.60 356.17,-369.80 355.17,-369.56"/>
    </edge>
    <edge id="77694" from="35" to="40" priority="3" type="highway.residential" spreadType="center" length="70.00" shape="248.71,-344.92 336.35,-361.18">
        <lane id="77694_0" index="0" disallow="pedestrian tram rail_urban rail rail_electric rail_fast ship" speed="36.11" length="70.00" width="3.50" customShape="1" shape="248.71,-344.92 251.12,-345.48 267.57,-349.76 299.84,-358.83 316.23,-363.38"/>
    </edge>
    <edge id="77695" from="40" to="34" priority="3" type="highway.residential" spreadType="center" length="70.00" shape="336.98,-357.74 249.60,-341.53">
        <lane id="77695_0" index="0" disallow="pedestrian tram rail_urban rail rail_electric rail_fast ship" speed="36.11" length="70.00" width="3.50" customShape="1" shape="317.12,-359.99 300.71,-355.44 268.32,-346.34 251.77,-342.03 249.60,-341.53"/>
    </edge>

    <junction id="16" type="dead_end" x="356.41" y="-535.81" incLanes="77557_0" intLanes="" shape="354.66,-535.78 358.16,-535.83" rightOfWay="edgePriority"/>
    <junction id="17" type="dead_end" x="278.37" y="-445.74" incLanes="77299_0" intLanes="" shape="278.46,-444.00 278.28,-447.49" rightOfWay="edgePriority"/>
    <junction id="22" type="dead_end" x="476.48" y="-307.84" incLanes="77140_0" intLanes="" shape="478.22,-307.97 474.73,-307.70" rightOfWay="edgePriority"/>
    <junction id="24" type="dead_end" x="438.39" y="-539.47" incLanes="" intLanes="" shape="436.64,-539.40 440.13,-539.55" rightOfWay="edgePriority"/>
    <junction id="28" type="dead_end" x="359.92" y="-535.87" incLanes="" intLanes="" shape="358.18,-535.80 361.67,-535.93" rightOfWay="edgePriority"/>
    <junction id="29" type="dead_end" x="278.17" y="-449.24" incLanes="" intLanes="" shape="278.26,-447.49 278.08,-450.99" rightOfWay="edgePriority"/>
    <junction id="30" type="dead_end" x="473.19" y="-305.02" incLanes="" intLanes="" shape="474.93,-305.16 471.44,-304.88" rightOfWay="edgePriority"/>
    <junction id="33" type="dead_end" x="335.27" y="-275.43" incLanes="77651_0" intLanes="" shape="337.01,-275.32 333.52,-275.54" rightOfWay="edgePriority"/>
    <junction id="34" type="dead_end" x="249.60" y="-341.53" incLanes="77695_0" intLanes="" shape="250.00,-339.82 249.20,-343.23" rightOfWay="edgePriority"/>
    <junction id="35" type="dead_end" x="248.71" y="-344.92" incLanes="" intLanes="" shape="249.11,-343.21 248.31,-346.62" rightOfWay="edgePriority"/>
    <junction id="36" type="dead_end" x="331.78" y="-275.76" incLanes="" intLanes="" shape="333.53,-275.65 330.03,-275.87" rightOfWay="edgePriority"/>
    <junction id="37" type="priority" x="366.93" y="-453.40" incLanes="77296_0 77558_0 77298_0" intLanes=":37_0_0 :37_1_0 :37_2_0 :37_3_0 :37_4_0 :37_5_0" shape="386.54,-444.14 386.25,-451.13 381.31,-451.37 377.25,-452.55 374.08,-454.68 371.78,-457.74 370.37,-461.75 369.83,-466.70 362.83,-466.57 362.50,-461.55 361.31,-457.39 359.25,-454.10 356.33,-451.68 352.55,-450.13 347.91,-449.44 348.26,-442.45">
        <request index="0" response="000000" foes="001000" cont="0"/>
        <request index="1" response="110000" foes="111000" cont="0"/>
        <request index="2" response="100000" foes="100000" cont="0"/>
        <request index="3" response="100011" foes="100011" cont="0"/>
        <request index="4" response="000000" foes="000010" cont="0"/>
        <request index="5" response="000000" foes="001110" cont="0"/>
    </junction>
    <junction id="38" type="priority" x="443.84" y="-385.23" incLanes="77141_0 77491_0 77691_0" intLanes=":38_0_0 :38_1_0 :38_2_0 :38_3_0 :38_4_0 :38_5_0" shape="457.11,-371.32 462.03,-376.30 457.47,-380.77 454.09,-384.31 451.67,-387.56 449.99,-391.17 448.85,-395.78 448.04,-402.04 441.07,-401.34 441.14,-396.31 440.24,-392.11 438.39,-388.75 435.58,-386.23 431.81,-384.54 427.09,-383.70 427.66,-376.72 434.62,-377.08 440.76,-376.93 446.08,-376.28 450.58,-375.13 454.26,-373.48">
        <request index="0" response="000000" foes="001000" cont="0"/>
        <request index="1" response="000000" foes="111000" cont="0"/>
        <request index="2" response="000000" foes="100000" cont="0"/>
        <request index="3" response="000011" foes="100011" cont="0"/>
        <request index="4" response="000010" foes="000010" cont="0"/>
        <request index="5" response="001110" foes="001110" cont="0"/>
    </junction>
    <junction id="39" type="priority" x="434.18" y="-449.93" incLanes="77490_0 77488_0 77295_0" intLanes=":39_0_0 :39_1_0 :39_2_0 :39_3_0 :39_4_0 :39_5_0" shape="438.39,-430.89 445.36,-431.50 443.06,-469.63 436.07,-469.34 435.84,-464.41 434.69,-460.34 432.63,-457.13 429.65,-454.77 425.76,-453.26 420.95,-452.61 421.25,-445.62 426.12,-445.39 430.18,-444.28 433.43,-442.27 435.89,-439.37 437.54,-435.57">
        <request index="0" response="000000" foes="001000" cont="0"/>
        <request index="1" response="000000" foes="111000" cont="0"/>
        <request index="2" response="000000" foes="100000" cont="0"/>
        <request index="3" response="000011" foes="100011" cont="0"/>
        <request index="4" response="000010" foes="000010" cont="0"/>
        <request index="5" response="001110" foes="001110" cont="0"/>
    </junction>
    <junction id="40" type="priority" x="336.63" y="-359.45" incLanes="77692_0 77694_0 77652_0" intLanes=":40_0_0 :40_1_0 :40_2_0 :40_3_0" shape="355.57,-367.86 353.95,-374.67 315.71,-365.05 317.58,-358.30 323.42,-359.44 328.07,-359.29 331.56,-357.85 333.87,-355.12 335.00,-351.10 334.97,-345.79 341.93,-345.06 342.89,-351.27 344.38,-356.51 346.39,-360.79 348.93,-364.11 351.99,-366.46">
        <request index="0" response="0000" foes="0000" cont="0"/>
        <request index="1" response="0000" foes="1000" cont="0"/>
        <request index="2" response="0000" foes="1000" cont="0"/>
        <request index="3" response="0110" foes="0110" cont="0"/>
    </junction>
    <junction id="7" type="dead_end" x="434.89" y="-539.35" incLanes="77487_0" intLanes="" shape="433.14,-539.28 436.64,-539.42" rightOfWay="edgePriority"/>

    <connection from="77141" to="77692" fromLane="0" toLane="0" contPos="-4.00" shape="458.38,-372.53 457.69,-373.15 456.14,-374.31 454.49,-375.27 451.78,-376.47 448.93,-377.36 445.98,-378.00 441.94,-378.53 437.85,-378.78 432.68,-378.76 427.52,-378.47" via=":38_0_0" dir="r" state="M"/>
    <connection from="77141" to="77490" fromLane="0" toLane="0" contPos="-4.00" shape="458.38,-372.53 455.23,-375.73 452.32,-379.14 449.69,-382.77 447.94,-385.64 446.40,-388.62 445.10,-391.72 444.06,-394.92 443.30,-398.19 442.81,-401.52" via=":38_1_0" dir="s" state="M"/>
    <connection from="77295" to="77487" fromLane="0" toLane="0" contPos="-4.00" shape="421.04,-450.86 423.35,-451.04 425.59,-451.39 427.76,-451.94 429.82,-452.72 431.74,-453.79 432.57,-454.39 433.38,-455.08 434.12,-455.84 434.79,-456.66 435.39,-457.53 435.91,-458.47 436.36,-459.42 437.08,-461.52 437.54,-463.70 437.79,-465.93 437.82,-469.41" via=":39_4_0" dir="r" state="m"/>
    <connection from="77295" to="77491" fromLane="0" toLane="0" contPos="-4.00" shape="421.04,-450.86 424.98,-450.83 427.57,-450.55 430.13,-450.03 432.60,-449.20 434.94,-448.03 436.03,-447.32 437.06,-446.51 438.02,-445.63 438.90,-444.66 439.70,-443.63 441.04,-441.40 442.07,-439.00 442.82,-436.50 443.32,-433.93 443.62,-431.34" via=":39_5_0" dir="l" state="m"/>
    <connection from="77296" to="77299" fromLane="0" toLane="0" contPos="-4.00" shape="386.44,-445.88 367.32,-445.04 348.17,-444.20" via=":37_0_0" dir="s" state="M"/>
    <connection from="77296" to="77557" fromLane="0" toLane="0" contPos="-4.00" shape="386.44,-445.88 382.61,-445.92 379.99,-446.22 377.40,-446.79 374.89,-447.68 373.64,-448.29 372.46,-448.99 371.33,-449.80 370.29,-450.71 369.33,-451.71 368.46,-452.79 367.70,-453.93 367.02,-455.15 366.00,-457.60 365.29,-460.16 364.84,-462.75 364.58,-466.60" via=":37_1_0" dir="l" state="m"/>
    <connection from="77298" to="77557" fromLane="0" toLane="0" contPos="-4.00" shape="347.98,-447.69 349.11,-447.78 351.37,-448.08 353.55,-448.57 355.62,-449.30 357.58,-450.29 358.45,-450.86 359.29,-451.51 360.07,-452.23 360.79,-453.00 361.44,-453.84 362.01,-454.71 363.00,-456.67 363.71,-458.75 364.19,-460.92 364.47,-463.15 364.58,-466.60" via=":37_4_0" dir="r" state="M"/>
    <connection from="77298" to="77295" fromLane="0" toLane="0" contPos="-4.00" shape="347.98,-447.69 367.16,-448.54 386.32,-449.38" via=":37_5_0" dir="s" state="M"/>