<routes>
	<vehicle depart="0.1" departLane="0" departPos="13.039434968921082" departSpeed="9.7671313" id="349" type="bus">
		<route edges=":23_9 47734"/>
	</vehicle>
	<vehicle depart="0.1" departLane="1" departPos="25.910282608622722" departSpeed="0.060286594" id="33" type="passenger">
		<route edges="47715 47788"/>
	</vehicle>
	<vehicle depart="0.1" departLane="1" departPos="19.018588773102973" departSpeed="0.44252637" id="313" type="passenger">
		<route edges="47715 47788"/>
	</vehicle>
	<vehicle depart="0.1" departLane="0" departPos="52.17480122619532" departSpeed="0.72111805" id="314" type="passenger">
		<route edges="47735 47717"/>
	</vehicle>
	<vehicle depart="0.1" departLane="0" departPos="8.862543929770498" departSpeed="0.027970692" id="316" type="passenger">
		<route edges=":23_11 47788"/>
	</vehicle>
	<vehicle depart="0.1" departLane="1" departPos="5.9385417576551465" departSpeed="0.62528179" id="342" type="passenger">
		<route edges="47715 47788"/>
	</vehicle>
	<vehicle depart="0.1" departLane="0" departPos="12.472394467033991" departSpeed="11.092099" id="348" type="passenger">
		<route edges="47775 47717"/>
	</vehicle>
	<vehicle depart="0.1" departLane="0" departPos="19.04417524487543" departSpeed="9.4895603" id="351" type="passenger">
		<route edges="47715 47734"/>
	</vehicle>
	<vehicle depart="0.1" departLane="0" departPos="2.5" departSpeed="7.2886408" id="353" type="passenger">
		<route edges="47715 47773"/>
	</vehicle>
	<vehicle depart="0.1" departLane="1" departPos="21.95086417039044" departSpeed="0.0" id="30" type="truck">
		<route edges="47775 47734"/>
	</vehicle>
</routes>
