<!-- generated on Wed Feb 10 12:33:47 2021 by Eclipse SUMO netconvert Version 1.8.0
<configuration xmlns:xsi="http://www.w3.org/2001/XMLSchema-instance" xsi:noNamespaceSchemaLocation="http://sumo.dlr.de/xsd/netconvertConfiguration.xsd">

    <input>
        <node-files value="./converted_scenarios/SUMO/DEU_Flensburg-19_1_I-1-1/DEU_Flensburg-19_1_I-1-1.nod.xml"/>
        <edge-files value="./converted_scenarios/SUMO/DEU_Flensburg-19_1_I-1-1/DEU_Flensburg-19_1_I-1-1.edg.xml"/>
        <connection-files value="./converted_scenarios/SUMO/DEU_Flensburg-19_1_I-1-1/DEU_Flensburg-19_1_I-1-1.con.xml"/>
        <tllogic-files value="./converted_scenarios/SUMO/DEU_Flensburg-19_1_I-1-1/DEU_Flensburg-19_1_I-1-1.tll.xml"/>
        <type-files value="/home/zen/commonroad-interactive-benchmarks/install/commonroad-map-tool/crmapconverter/sumo_map/templates/DEU.typ.xml"/>
    </input>

    <output>
        <output-file value="./converted_scenarios/SUMO/DEU_Flensburg-19_1_I-1-1/DEU_Flensburg-19_1_I-1-1.net.xml"/>
    </output>

    <processing>
        <geometry.remove.keep-edges.explicit value="true"/>
        <geometry.avoid-overlap value="true"/>
        <offset.disable-normalization value="true"/>
    </processing>

    <junctions>
        <no-turnarounds value="true"/>
        <junctions.internal-link-detail value="20"/>
    </junctions>

    <report>
        <aggregate-warnings value="5"/>
    </report>

    <random_number>
        <seed value="1234"/>
    </random_number>

</configuration>
--><net xmlns:xsi="http://www.w3.org/2001/XMLSchema-instance" version="1.6" junctionCornerDetail="5" junctionLinkDetail="20" limitTurnSpeed="5.50" xsi:noNamespaceSchemaLocation="http://sumo.dlr.de/xsd/net_file.xsd">

    <location netOffset="0.00,0.00" convBoundary="18.56,336.77,144.55,529.63" origBoundary="18.56,336.77,144.55,529.63" projParameter="!"/>

    <type id="highway.bridleway" priority="1" speed="2.78" allow="pedestrian" oneway="1" width="2.00"/>
    <type id="highway.bus_guideway" priority="1" speed="27.78" allow="bus" oneway="1"/>
    <type id="highway.cycleway" priority="1" speed="8.33" allow="bicycle" oneway="0" width="1.00"/>
    <type id="highway.footway" priority="1" speed="2.78" allow="pedestrian" oneway="1" width="2.00"/>
    <type id="highway.ford" priority="1" speed="2.78" allow="army" oneway="0"/>
    <type id="highway.living_street" priority="2" speed="2.78" disallow="tram rail_urban rail rail_electric rail_fast ship" oneway="0"/>
    <type id="highway.motorway" priority="14" speed="39.44" allow="private emergency authority army vip passenger hov taxi bus coach delivery truck trailer motorcycle evehicle custom1 custom2" oneway="1"/>
    <type id="highway.motorway_link" priority="9" speed="22.22" allow="private emergency authority army vip passenger hov taxi bus coach delivery truck trailer motorcycle evehicle custom1 custom2" oneway="1"/>
    <type id="highway.path" priority="1" speed="2.78" allow="pedestrian bicycle" oneway="0" width="2.00"/>
    <type id="highway.pedestrian" priority="1" speed="2.78" allow="pedestrian" oneway="1" width="2.00"/>
    <type id="highway.primary" priority="12" speed="27.78" disallow="pedestrian tram rail_urban rail rail_electric rail_fast ship" oneway="0"/>
    <type id="highway.primary_link" priority="7" speed="22.22" disallow="pedestrian tram rail_urban rail rail_electric rail_fast ship" oneway="0"/>
    <type id="highway.raceway" priority="15" speed="83.33" allow="vip" oneway="0"/>
    <type id="highway.residential" priority="3" speed="13.89" disallow="pedestrian tram rail_urban rail rail_electric rail_fast ship" oneway="0"/>
    <type id="highway.secondary" priority="11" speed="27.78" disallow="pedestrian tram rail_urban rail rail_electric rail_fast ship" oneway="0"/>
    <type id="highway.secondary_link" priority="6" speed="22.22" disallow="pedestrian tram rail_urban rail rail_electric rail_fast ship" oneway="0"/>
    <type id="highway.service" priority="1" speed="5.56" allow="pedestrian delivery bicycle" oneway="0"/>
    <type id="highway.stairs" priority="1" speed="1.39" allow="pedestrian" oneway="1" width="2.00"/>
    <type id="highway.step" priority="1" speed="1.39" allow="pedestrian" oneway="1" width="2.00"/>
    <type id="highway.steps" priority="1" speed="1.39" allow="pedestrian" oneway="1" width="2.00"/>
    <type id="highway.tertiary" priority="10" speed="22.22" disallow="pedestrian tram rail_urban rail rail_electric rail_fast ship" oneway="0"/>
    <type id="highway.tertiary_link" priority="5" speed="22.22" disallow="pedestrian tram rail_urban rail rail_electric rail_fast ship" oneway="0"/>
    <type id="highway.track" priority="1" speed="5.56" allow="pedestrian motorcycle moped bicycle" oneway="0"/>
    <type id="highway.trunk" priority="13" speed="27.78" disallow="pedestrian bicycle tram rail_urban rail rail_electric rail_fast ship" oneway="0"/>
    <type id="highway.trunk_link" priority="8" speed="22.22" disallow="pedestrian bicycle tram rail_urban rail rail_electric rail_fast ship" oneway="0"/>
    <type id="highway.unclassified" priority="4" speed="13.89" disallow="pedestrian tram rail_urban rail rail_electric rail_fast ship" oneway="0"/>
    <type id="highway.unsurfaced" priority="1" speed="8.33" disallow="tram rail_urban rail rail_electric rail_fast ship" oneway="0"/>
    <type id="railway.highspeed" priority="21" speed="69.44" allow="rail_fast" oneway="1"/>
    <type id="railway.light_rail" priority="19" speed="27.78" allow="rail_urban" oneway="1"/>
    <type id="railway.preserved" priority="16" speed="27.78" allow="rail" oneway="1"/>
    <type id="railway.rail" priority="20" speed="44.44" allow="rail" oneway="1"/>
    <type id="railway.subway" priority="18" speed="27.78" allow="rail_urban" oneway="1"/>
    <type id="railway.tram" priority="17" speed="13.89" allow="tram" oneway="1"/>

    <edge id=":37_0" function="internal">
        <lane id=":37_0_0" index="0" disallow="pedestrian tram rail_urban rail rail_electric rail_fast ship" speed="6.77" length="10.67" width="3.50" shape="84.99,413.50 84.60,412.37 83.94,410.90 83.41,410.10 82.81,409.45 82.11,408.96 81.38,408.67 80.53,408.55 79.62,408.61 78.67,408.82 77.13,409.38"/>
    </edge>
    <edge id=":37_1" function="internal">
        <lane id=":37_1_0" index="0" disallow="pedestrian tram rail_urban rail rail_electric rail_fast ship" speed="16.92" length="15.04" width="3.49" shape="84.99,413.50 84.52,411.78 83.93,408.58 83.73,405.83 83.85,403.06 84.67,398.66"/>
    </edge>
    <edge id=":37_2" function="internal">
        <lane id=":37_2_0" index="0" disallow="pedestrian tram rail_urban rail rail_electric rail_fast ship" speed="14.53" length="10.82" width="3.50" shape="87.57,401.67 87.32,403.44 87.23,405.82 87.41,408.20 87.93,411.01 88.30,412.37"/>
    </edge>
    <edge id=":37_3" function="internal">
        <lane id=":37_3_0" index="0" disallow="pedestrian tram rail_urban rail rail_electric rail_fast ship" speed="10.92" length="13.22" width="3.50" shape="87.57,401.67 87.28,402.20 86.62,403.20 85.39,404.51 83.50,405.98 80.94,407.53 77.13,409.38"/>
    </edge>
    <edge id=":37_4" function="internal">
        <lane id=":37_4_0" index="0" disallow="pedestrian tram rail_urban rail rail_electric rail_fast ship" speed="10.62" length="12.38" width="3.49" shape="75.60,406.24 79.00,404.60 81.16,403.35 82.71,402.23 83.66,401.34 84.06,400.80 84.67,398.66"/>
    </edge>
    <edge id=":37_5" function="internal">
        <lane id=":37_5_0" index="0" disallow="pedestrian tram rail_urban rail rail_electric rail_fast ship" speed="8.31" length="16.73" width="3.50" shape="75.60,406.24 77.88,405.39 79.35,405.07 80.86,404.97 82.35,405.17 83.76,405.70 85.00,406.56 86.03,407.65 86.87,408.91 87.82,410.96 88.30,412.37"/>
    </edge>
    <edge id=":38_0" function="internal">
        <lane id=":38_0_0" index="0" disallow="pedestrian tram rail_urban rail rail_electric rail_fast ship" speed="7.71" length="11.30" width="3.50" shape="39.33,458.37 38.13,457.31 36.95,456.50 35.66,455.92 34.84,455.71 33.98,455.61 33.13,455.65 31.79,455.96 30.48,456.52 29.21,457.30"/>
    </edge>
    <edge id=":38_1" function="internal">
        <lane id=":38_1_0" index="0" disallow="pedestrian tram rail_urban rail rail_electric rail_fast ship" speed="8.59" length="15.80" width="3.50" shape="39.32,458.37 38.75,457.77 37.55,456.22 36.86,454.93 36.39,453.53 36.20,452.02 36.32,450.53 36.71,449.12 37.31,447.82 38.42,446.17 39.85,444.53"/>
    </edge>
    <edge id=":38_2" function="internal">
        <lane id=":38_2_0" index="0" disallow="pedestrian tram rail_urban rail rail_electric rail_fast ship" speed="7.09" length="10.41" width="3.50" shape="42.43,446.90 41.30,448.17 40.54,449.29 40.15,450.10 39.89,450.96 39.80,451.86 39.89,452.75 40.16,453.61 40.57,454.41 41.40,455.48 41.82,455.92"/>
    </edge>
    <edge id=":38_3" function="internal">
        <lane id=":38_3_0" index="0" disallow="pedestrian tram rail_urban rail rail_electric rail_fast ship" speed="36.11" length="16.84" width="3.50" shape="42.43,446.90 40.25,448.96 36.09,452.32 29.21,457.30"/>
    </edge>
    <edge id=":38_4" function="internal">
        <lane id=":38_4_0" index="0" disallow="pedestrian tram rail_urban rail rail_electric rail_fast ship" speed="36.11" length="16.07" width="3.50" shape="27.21,454.43 33.94,449.57 37.96,446.32 39.85,444.53"/>
    </edge>
    <edge id=":38_5" function="internal">
        <lane id=":38_5_0" index="0" disallow="pedestrian tram rail_urban rail rail_electric rail_fast ship" speed="9.12" length="16.24" width="3.50" shape="27.21,454.43 28.95,453.37 30.79,452.58 32.75,452.12 34.08,452.06 35.42,452.20 36.71,452.53 38.54,453.35 40.20,454.48 41.82,455.92"/>
    </edge>
    <edge id=":39_0" function="internal">
        <lane id=":39_0_0" index="0" disallow="pedestrian tram rail_urban rail rail_electric rail_fast ship" speed="16.58" length="12.34" width="3.50" shape="94.02,391.11 91.55,394.03 89.86,396.33 88.66,398.38 87.94,400.14 87.61,401.48"/>
    </edge>
    <edge id=":39_1" function="internal">
        <lane id=":39_1_0" index="0" disallow="pedestrian tram rail_urban rail rail_electric rail_fast ship" speed="8.50" length="16.31" width="3.50" shape="94.02,391.12 92.49,392.62 90.79,393.89 89.53,394.55 88.18,394.99 86.78,395.17 85.37,395.06 84.00,394.68 82.72,394.09 80.95,392.90 79.88,391.97"/>
    </edge>
    <edge id=":39_2" function="internal">
        <lane id=":39_2_0" index="0" disallow="pedestrian tram rail_urban rail rail_electric rail_fast ship" speed="6.99" length="10.68" width="3.50" shape="82.27,389.41 83.02,390.07 84.26,390.91 85.07,391.28 85.89,391.51 86.70,391.57 87.53,391.45 88.34,391.18 89.13,390.76 90.32,389.86 91.42,388.77"/>
    </edge>
    <edge id=":39_3" function="internal">
        <lane id=":39_3_0" index="0" disallow="pedestrian tram rail_urban rail rail_electric rail_fast ship" speed="10.18" length="13.91" width="3.50" shape="82.27,389.41 83.11,390.23 85.00,392.33 86.36,394.24 87.22,395.89 87.79,397.72 87.95,399.11 87.61,401.48"/>
    </edge>
    <edge id=":39_4" function="internal">
        <lane id=":39_4_0" index="0" disallow="pedestrian tram rail_urban rail rail_electric rail_fast ship" speed="8.58" length="9.72" width="3.50" shape="84.71,398.46 84.47,399.29 84.45,398.80 84.37,398.32 84.24,397.84 84.07,397.38 83.87,396.93 83.65,396.49 83.40,396.07 83.14,395.65 82.85,395.25 82.56,394.86 82.25,394.47 81.93,394.10 81.60,393.73 81.27,393.36 80.93,393.01 80.59,392.66 80.23,392.31 79.88,391.97"/>
    </edge>
    <edge id=":39_5" function="internal">
        <lane id=":39_5_0" index="0" disallow="pedestrian tram rail_urban rail rail_electric rail_fast ship" speed="17.31" length="13.24" width="3.50" shape="84.71,398.46 84.58,399.16 85.42,397.05 86.80,394.64 88.69,392.01 91.42,388.77"/>
    </edge>
    <edge id=":40_0" function="internal">
        <lane id=":40_0_0" index="0" disallow="pedestrian tram rail_urban rail rail_electric rail_fast ship" speed="36.11" length="17.52" width="3.50" shape="111.75,466.26 109.83,462.26 103.89,450.60"/>
    </edge>
    <edge id=":40_1" function="internal">
        <lane id=":40_1_0" index="0" disallow="pedestrian tram rail_urban rail rail_electric rail_fast ship" speed="10.26" length="16.81" width="3.50" shape="111.74,466.26 111.08,464.46 110.71,462.56 110.68,460.61 110.99,458.71 111.57,456.91 112.37,455.23 113.66,453.22 115.53,450.95"/>
    </edge>
    <edge id=":40_2" function="internal">
        <lane id=":40_2_0" index="0" disallow="pedestrian tram rail_urban rail rail_electric rail_fast ship" speed="8.97" length="12.66" width="3.50" shape="118.10,453.32 116.60,455.13 115.57,456.70 114.94,457.96 114.47,459.29 114.21,460.67 114.19,462.07 114.44,463.46 114.92,464.77"/>
    </edge>
    <edge id=":40_3" function="internal">
        <lane id=":40_3_0" index="0" disallow="pedestrian tram rail_urban rail rail_electric rail_fast ship" speed="8.12" length="18.37" width="3.50" shape="118.10,453.32 116.28,455.06 114.93,456.03 113.44,456.77 112.64,457.00 111.81,457.13 110.98,457.13 110.16,456.98 109.37,456.71 108.62,456.34 107.30,455.33 106.15,454.12 104.72,452.06 103.89,450.60"/>
    </edge>
    <edge id=":40_4" function="internal">
        <lane id=":40_4_0" index="0" disallow="pedestrian tram rail_urban rail rail_electric rail_fast ship" speed="6.54" length="11.41" width="3.50" shape="106.98,448.97 107.27,449.49 107.57,450.01 107.89,450.52 108.23,451.02 108.59,451.50 108.99,451.95 109.41,452.37 109.87,452.76 110.38,453.07 110.94,453.29 111.53,453.38 112.13,453.33 112.70,453.15 113.24,452.88 113.74,452.55 114.22,452.20 114.68,451.81 115.11,451.39 115.53,450.95"/>
    </edge>
    <edge id=":40_5" function="internal">
        <lane id=":40_5_0" index="0" disallow="pedestrian tram rail_urban rail rail_electric rail_fast ship" speed="36.11" length="17.68" width="3.50" shape="106.98,448.97 112.98,460.74 114.92,464.77"/>
    </edge>

    <edge id="347" from="39" to="3" priority="3" type="highway.residential" spreadType="center" length="69.99" shape="85.34,392.42 138.27,336.77">
        <lane id="347_0" index="0" disallow="pedestrian tram rail_urban rail rail_electric rail_fast ship" speed="36.11" length="69.99" width="3.50" customShape="1" shape="91.42,388.77 118.06,359.20 138.27,336.77"/>
    </edge>
    <edge id="348" from="30" to="39" priority="3" type="highway.residential" spreadType="center" length="70.00" shape="140.86,339.12 87.87,394.83">
        <lane id="348_0" index="0" disallow="pedestrian tram rail_urban rail rail_electric rail_fast ship" speed="36.11" length="70.00" width="3.50" customShape="1" shape="140.86,339.12 120.66,361.54 94.01,391.13"/>
    </edge>
    <edge id="350" from="37" to="39" priority="3" type="highway.residential" spreadType="center" length="0.20" shape="81.34,406.64 85.02,392.94">
        <lane id="350_0" index="0" disallow="pedestrian tram rail_urban rail rail_electric rail_fast ship" speed="36.11" length="0.20" width="3.49" customShape="1" shape="84.67,398.66 84.71,398.46"/>
    </edge>
    <edge id="351" from="39" to="37" priority="3" type="highway.residential" spreadType="center" length="0.19" shape="88.37,393.84 84.71,407.54">
        <lane id="351_0" index="0" disallow="pedestrian tram rail_urban rail rail_electric rail_fast ship" speed="36.11" length="0.19" width="3.50" customShape="1" shape="87.61,401.48 87.57,401.67"/>
    </edge>
    <edge id="365" from="13" to="39" priority="3" type="highway.residential" spreadType="center" length="13.74" shape="72.28,380.00 87.84,392.33">
        <lane id="365_0" index="0" disallow="pedestrian tram rail_urban rail rail_electric rail_fast ship" speed="36.11" length="13.74" width="3.50" customShape="1" shape="72.28,380.00 77.28,384.71 82.28,389.42"/>
    </edge>
    <edge id="366" from="39" to="18" priority="3" type="highway.residential" spreadType="center" length="13.74" shape="85.67,395.06 69.88,382.55">
        <lane id="366_0" index="0" disallow="pedestrian tram rail_urban rail rail_electric rail_fast ship" speed="36.11" length="13.74" width="3.50" customShape="1" shape="79.88,391.97 74.88,387.26 69.88,382.55"/>
    </edge>
    <edge id="385" from="38" to="33" priority="3" type="highway.residential" spreadType="center" length="10.54" shape="37.49,454.43 20.56,463.32">
        <lane id="385_0" index="0" disallow="pedestrian tram rail_urban rail rail_electric rail_fast ship" speed="36.11" length="10.54" width="3.50" customShape="1" shape="29.21,457.30 24.90,460.30 20.56,463.32"/>
    </edge>
    <edge id="386" from="35" to="38" priority="3" type="highway.residential" spreadType="center" length="10.56" shape="18.56,460.44 35.87,451.34">
        <lane id="386_0" index="0" disallow="pedestrian tram rail_urban rail rail_electric rail_fast ship" speed="36.11" length="10.56" width="3.50" customShape="1" shape="18.56,460.44 22.90,457.43 27.23,454.41"/>
    </edge>
    <edge id="388" from="37" to="38" priority="3" type="highway.residential" spreadType="center" length="51.51" shape="84.25,408.34 37.74,454.23">
        <lane id="388_0" index="0" disallow="pedestrian tram rail_urban rail rail_electric rail_fast ship" speed="36.11" length="51.51" width="3.50" customShape="1" shape="77.13,409.38 75.37,410.23 72.86,411.78 70.49,413.60 67.17,416.66 63.78,420.25 59.96,424.84 50.26,437.77 46.06,442.95 42.43,446.90"/>
    </edge>
    <edge id="389" from="38" to="37" priority="3" type="highway.residential" spreadType="center" length="52.82" shape="35.28,451.75 81.79,405.84">
        <lane id="389_0" index="0" disallow="pedestrian tram rail_urban rail rail_electric rail_fast ship" speed="36.11" length="52.82" width="3.50" customShape="1" shape="39.85,444.53 43.40,440.67 47.49,435.63 57.22,422.67 61.16,417.93 64.72,414.17 68.25,410.92 70.88,408.89 73.72,407.15 75.60,406.24"/>
    </edge>
    <edge id="418" from="9" to="38" priority="3" type="highway.residential" spreadType="center" length="70.00" shape="55.79,523.01 34.85,453.42">
        <lane id="418_0" index="0" disallow="pedestrian tram rail_urban rail rail_electric rail_fast ship" speed="36.11" length="70.00" width="3.50" customShape="1" shape="55.79,523.01 55.58,514.38 54.94,495.79 53.97,479.14 53.74,476.76 53.40,475.50 52.70,473.91 51.48,471.96 48.82,468.43 45.57,464.71 39.26,458.30"/>
    </edge>
    <edge id="419" from="38" to="16" priority="3" type="highway.residential" spreadType="center" length="69.85" shape="38.20,452.40 59.23,520.24">
        <lane id="419_0" index="0" disallow="pedestrian tram rail_urban rail rail_electric rail_fast ship" speed="36.11" length="69.85" width="3.50" customShape="1" shape="41.82,455.92 48.14,462.33 51.54,466.22 54.37,469.98 55.80,472.31 56.71,474.39 57.18,476.16 57.46,478.92 58.44,495.63 59.08,514.28 59.23,520.24"/>
    </edge>
    <edge id="76" from="36" to="40" priority="3" type="highway.residential" spreadType="center" length="38.07" shape="143.88,425.32 113.06,457.07">
        <lane id="76_0" index="0" disallow="pedestrian tram rail_urban rail rail_electric rail_fast ship" speed="36.11" length="38.07" width="3.50" customShape="1" shape="143.88,425.32 131.00,439.31 118.09,453.33"/>
    </edge>
    <edge id="77" from="40" to="22" priority="3" type="highway.residential" spreadType="center" length="38.10" shape="110.55,454.64 141.33,422.92">
        <lane id="77_0" index="0" disallow="pedestrian tram rail_urban rail rail_electric rail_fast ship" speed="36.11" length="38.10" width="3.50" customShape="1" shape="115.53,450.95 128.43,436.94 141.33,422.92"/>
    </edge>
    <edge id="853" from="40" to="37" priority="3" type="highway.residential" spreadType="center" length="41.68" shape="110.38,456.74 81.52,407.98">
        <lane id="853_0" index="0" disallow="pedestrian tram rail_urban rail rail_electric rail_fast ship" speed="36.11" length="41.68" width="3.50" customShape="1" shape="103.89,450.60 92.01,427.94 87.54,419.82 85.99,416.42 84.99,413.50"/>
    </edge>
    <edge id="854" from="37" to="40" priority="3" type="highway.residential" spreadType="center" length="41.14" shape="84.53,406.20 113.39,454.96">
        <lane id="854_0" index="0" disallow="pedestrian tram rail_urban rail rail_electric rail_fast ship" speed="36.11" length="41.14" width="3.50" customShape="1" shape="88.30,412.37 89.23,415.10 90.66,418.23 95.10,426.30 106.99,448.98"/>
    </edge>
    <edge id="856" from="25" to="40" priority="3" type="highway.residential" spreadType="center" length="70.00" shape="141.37,529.63 110.23,456.46">
        <lane id="856_0" index="0" disallow="pedestrian tram rail_urban rail rail_electric rail_fast ship" speed="36.11" length="70.00" width="3.50" customShape="1" shape="141.37,529.63 111.73,466.22"/>
    </edge>
    <edge id="857" from="40" to="8" priority="3" type="highway.residential" spreadType="center" length="70.00" shape="113.45,455.09 144.55,528.19">
        <lane id="857_0" index="0" disallow="pedestrian tram rail_urban rail rail_electric rail_fast ship" speed="36.11" length="70.00" width="3.50" customShape="1" shape="114.92,464.77 144.55,528.19"/>
    </edge>

    <junction id="13" type="dead_end" x="72.28" y="380.00" incLanes="" intLanes="" shape="71.08,381.27 73.48,378.73" rightOfWay="edgePriority"/>
    <junction id="16" type="dead_end" x="59.23" y="520.24" incLanes="419_0" intLanes="" shape="60.97,520.20 57.48,520.28" rightOfWay="edgePriority"/>
    <junction id="18" type="dead_end" x="69.88" y="382.55" incLanes="366_0" intLanes="" shape="68.68,383.82 71.08,381.28" rightOfWay="edgePriority"/>
    <junction id="22" type="dead_end" x="141.33" y="422.92" incLanes="77_0" intLanes="" shape="140.05,421.73 142.62,424.10" rightOfWay="edgePriority"/>
    <junction id="25" type="dead_end" x="141.37" y="529.63" incLanes="" intLanes="" shape="142.95,528.89 139.78,530.38" rightOfWay="edgePriority"/>
    <junction id="3" type="dead_end" x="138.27" y="336.77" incLanes="347_0" intLanes="" shape="136.97,335.60 139.57,337.94" rightOfWay="edgePriority"/>
    <junction id="30" type="dead_end" x="140.86" y="339.12" incLanes="" intLanes="" shape="139.56,337.95 142.16,340.29" rightOfWay="edgePriority"/>
    <junction id="33" type="dead_end" x="20.56" y="463.32" incLanes="385_0" intLanes="" shape="21.55,464.75 19.56,461.88" rightOfWay="edgePriority"/>
    <junction id="35" type="dead_end" x="18.56" y="460.44" incLanes="" intLanes="" shape="19.56,461.88 17.56,459.00" rightOfWay="edgePriority"/>
    <junction id="36" type="dead_end" x="143.88" y="425.32" incLanes="" intLanes="" shape="142.60,424.13 145.17,426.50" rightOfWay="edgePriority"/>
    <junction id="37" type="priority" x="83.02" y="407.09" incLanes="853_0 351_0 389_0" intLanes=":37_0_0 :37_1_0 :37_2_0 :37_3_0 :37_4_0 :37_5_0" shape="83.33,414.07 89.95,411.80 90.15,398.17 83.24,397.05 74.83,404.66 77.89,410.95 80.16,410.49 81.12,410.82 81.97,411.53 82.71,412.61">
        <request index="0" response="001000" foes="001000" cont="0"/>
        <request index="1" response="111000" foes="111000" cont="0"/>
        <request index="2" response="000000" foes="100000" cont="0"/>
        <request index="3" response="000000" foes="100011" cont="0"/>
        <request index="4" response="000000" foes="000010" cont="0"/>
        <request index="5" response="001100" foes="001110" cont="0"/>
    </junction>
    <junction id="38" type="priority" x="36.54" y="452.96" incLanes="418_0 388_0 386_0" intLanes=":38_0_0 :38_1_0 :38_2_0 :38_3_0 :38_4_0 :38_5_0" shape="38.08,459.60 43.06,454.69 41.89,452.69 41.82,451.61 42.11,450.49 42.74,449.31 43.72,448.08 38.57,443.35 36.26,445.75 34.44,447.42 32.81,448.65 31.10,449.79 28.99,451.13 26.21,452.99 30.21,458.74 32.93,457.55 34.26,457.51 35.56,457.83 36.83,458.53">
        <request index="0" response="001000" foes="001000" cont="0"/>
        <request index="1" response="111000" foes="111000" cont="0"/>
        <request index="2" response="000000" foes="100000" cont="0"/>
        <request index="3" response="000000" foes="100011" cont="0"/>
        <request index="4" response="000000" foes="000010" cont="0"/>
        <request index="5" response="001100" foes="001110" cont="0"/>
    </junction>
    <junction id="39" type="priority" x="86.63" y="393.60" incLanes="348_0 365_0 350_0" intLanes=":39_0_0 :39_1_0 :39_2_0 :39_3_0 :39_4_0 :39_5_0" shape="95.32,392.29 90.12,387.60 87.91,389.30 86.80,389.58 85.69,389.48 84.59,389.01 83.48,388.15 78.68,393.24 82.42,401.03 89.17,402.55">
        <request index="0" response="000000" foes="001000" cont="0"/>
        <request index="1" response="110000" foes="111000" cont="0"/>
        <request index="2" response="100000" foes="100000" cont="0"/>
        <request index="3" response="100011" foes="100011" cont="0"/>
        <request index="4" response="000000" foes="000010" cont="0"/>
        <request index="5" response="000000" foes="001110" cont="0"/>
    </junction>
    <junction id="40" type="priority" x="111.86" y="455.81" incLanes="856_0 76_0 854_0" intLanes=":40_0_0 :40_1_0 :40_2_0 :40_3_0 :40_4_0 :40_5_0" shape="110.16,467.00 116.50,464.03 115.94,461.09 116.23,459.53 116.90,457.91 117.95,456.24 119.39,454.50 114.24,449.77 112.23,451.09 111.27,451.05 110.33,450.55 109.42,449.59 108.54,448.17 102.34,451.42">
        <request index="0" response="000000" foes="001000" cont="0"/>
        <request index="1" response="110000" foes="111000" cont="0"/>
        <request index="2" response="100000" foes="100000" cont="0"/>
        <request index="3" response="100011" foes="100011" cont="0"/>
        <request index="4" response="000000" foes="000010" cont="0"/>
        <request index="5" response="000000" foes="001110" cont="0"/>
    </junction>
    <junction id="8" type="dead_end" x="144.55" y="528.19" incLanes="857_0" intLanes="" shape="146.14,527.45 142.97,528.93" rightOfWay="edgePriority"/>
    <junction id="9" type="dead_end" x="55.79" y="523.01" incLanes="" intLanes="" shape="57.54,522.96 54.04,523.05" rightOfWay="edgePriority"/>

    <connection from="348" to="351" fromLane="0" toLane="0" contPos="-4.00" shape="94.01,391.13 91.55,394.03 89.86,396.33 88.66,398.38 87.94,400.14 87.83,400.51" via=":39_0_0" dir="s" state="M"/>
    <connection from="348" to="366" fromLane="0" toLane="0" contPos="-4.00" shape="94.01,391.13 92.49,392.62 90.79,393.89 89.53,394.55 88.18,394.99 86.78,395.17 85.37,395.06 84.00,394.68 82.72,394.09 80.95,392.90 79.88,391.97" via=":39_1_0" dir="l" state="m"/>
    <connection from="350" to="366" fromLane="0" toLane="0" contPos="-4.00" shape="84.41,399.79 84.47,399.29 84.45,398.80 84.37,398.32 84.24,397.84 84.07,397.38 83.87,396.93 83.65,396.49 83.40,396.07 83.14,395.65 82.85,395.25 82.56,394.86 82.25,394.47 81.93,394.10 81.60,393.73 81.27,393.36 80.93,393.01 80.59,392.66 80.23,392.31 79.88,391.97" via=":39_4_0" dir="r" state="M"/>
    <connection from="350" to="347" fromLane="0" toLane="0" contPos="-4.00" shape="84.41,399.79 84.58,399.16 85.42,397.05 86.80,394.64 88.69,392.01 91.42,388.77" via=":39_5_0" dir="s" state="M"/>
    <connection from="351" to="854" fromLane="0" toLane="0" contPos="-4.00" shape="87.70,401.08 87.32,403.44 87.23,405.82 87.41,408.20 87.93,411.01 88.30,412.37" via=":37_2_0" dir="r" state="M"/>
    <connection from="351" to="388" fromLane="0" toLane="0" contPos="-4.00" shape="87.70,401.08 87.28,402.20 86.62,403.20 85.39,404.51 83.50,405.98 80.94,407.53 77.13,409.38" via=":37_3_0" dir="s" state="M"/>
    <connection from="365" to="347" fromLane="0" toLane="0" contPos="-4.00" shape="82.27,389.41 83.02,390.07 84.26,390.91 85.07,391.28 85.89,391.51 86.70,391.57 87.53,391.45 88.34,391.18 89.13,390.76 90.32,389.86 91.42,388.77" via=":39_2_0" dir="r" state="m"/>
    <connection from="365" to="351" fromLane="0" toLane="0" contPos="-4.00" shape="82.27,389.41 83.11,390.23 85.00,392.33 86.36,394.24 87.22,395.89 87.79,397.72 87.95,399.11 87.83,400.51" via=":39_3_0" dir="l" state="m"/>
    <connection from="386" to="389" fromLane="0" toLane="0" contPos="-4.00" shape="27.23,454.41 33.94,449.57 37.96,446.32 39.66,444.74" via=":38_4_0" dir="s" state="M"/>
    <connection from="386" to="419" fromLane="0" toLane="0" contPos="-4.00" shape="27.23,454.41 28.95,453.37 30.79,452.58 32.75,452.12 34.08,452.06 35.42,452.20 36.71,452.53 38.54,453.35 40.20,454.48 41.71,455.81" via=":38_5_0" dir="l" state="m"/>
    <connection from="388" to="419" fromLane="0" toLane="0" contPos="-4.00" shape="42.17,447.18 41.30,448.17 40.54,449.29 40.15,450.10 39.89,450.96 39.80,451.86 39.89,452.75 40.16,453.61 40.57,454.41 41.40,455.48 41.71,455.81" via=":38_2_0" dir="r" state="M"/>
    <connection from="388" to="385" fromLane="0" toLane="0" contPos="-4.00" shape="42.17,447.18 40.25,448.96 36.09,452.32 29.21,457.30" via=":38_3_0" dir="s" state="M"/>
    <connection from="389" to="350" fromLane="0" toLane="0" contPos="-4.00" shape="75.72,406.18 79.00,404.60 81.16,403.35 82.71,402.23 83.66,401.34 84.06,400.80 84.32,400.24" via=":37_4_0" dir="s" state="M"/>
    <connection from="389" to="854" fromLane="0" toLane="0" contPos="-4.00" shape="75.72,406.18 77.88,405.39 79.35,405.07 80.86,404.97 82.35,405.17 83.76,405.70 85.00,406.56 86.03,407.65 86.87,408.91 87.82,410.96 88.30,412.37" via=":37_5_0" dir="l" state="m"/>
    <connection from="418" to="385" fromLane="0" toLane="0" contPos="-4.00" shape="39.26,458.30 38.13,457.31 36.95,456.50 35.66,455.92 34.84,455.71 33.98,455.61 33.13,455.65 31.79,455.96 30.48,456.52 29.21,457.30" via=":38_0_0" dir="r" state="m"/>
    <connection from="418" to="389" fromLane="0" toLane="0" contPos="-4.00" shape="39.26,458.30 38.75,457.77 37.55,456.22 36.86,454.93 36.39,453.53 36.20,452.02 36.32,450.53 36.71,449.12 37.31,447.82 38.42,446.17 39.66,444.74" via=":38_1_0" dir="l" state="m"/>
    <connection from="76" to="857" fromLane="0" toLane="0" contPos="-4.00" shape="118.09,453.33 116.60,455.13 115.57,456.70 114.94,457.96 114.47,459.29 114.21,460.67 114.19,462.07 114.44,463.46 114.92,464.77" via=":40_2_0" dir="r" state="m"/>