<routes>
	<vehicle depart="0.1" departLane="0" departPos="69.77196521689936" departSpeed="6.9183492" id="339" type="bicycle">
		<route edges="348 351 388 385"/>
	</vehicle>
	<vehicle depart="0.1" departLane="0" departPos="46.08533307645312" departSpeed="0.0066333901" id="335" type="bus">
		<route edges="856 77"/>
	</vehicle>
	<vehicle depart="0.1" departLane="0" departPos="31.72265131798815" departSpeed="0.033679041" id="343" type="bus">
		<route edges="856 77"/>
	</vehicle>
	<vehicle depart="0.1" departLane="0" departPos="35.13498439573331" departSpeed="0.0" id="32" type="passenger">
		<route edges="853 350"/>
	</vehicle>
	<vehicle depart="0.1" departLane="0" departPos="28.203087302328953" departSpeed="0.0" id="33" type="passenger">
		<route edges="853 350"/>
	</vehicle>
	<vehicle depart="0.1" departLane="0" departPos="69.86921170638531" departSpeed="0.0" id="34" type="passenger">
		<route edges="418 389"/>
	</vehicle>
	<vehicle depart="0.1" departLane="0" departPos="41.896770749165476" departSpeed="0.0" id="35" type="passenger">
		<route edges="853 350"/>
	</vehicle>
	<vehicle depart="0.1" departLane="0" departPos="13.641174264737135" departSpeed="0.0" id="37" type="passenger">
		<route edges="365 351"/>
	</vehicle>
	<vehicle depart="0.1" departLane="0" departPos="6.608465559694471" departSpeed="4.9415399" id="38" type="passenger">
		<route edges=":39_1 366"/>
	</vehicle>
	<vehicle depart="0.1" departLane="0" departPos="6.310829801658533" departSpeed="0.0" id="39" type="passenger">
		<route edges="365 351"/>
	</vehicle>
	<vehicle depart="0.1" departLane="0" departPos="6.497253899001826" departSpeed="0.0013645982" id="310" type="passenger">
		<route edges="853 350"/>
	</vehicle>
	<vehicle depart="0.1" departLane="0" departPos="38.295398935577374" departSpeed="0.0" id="312" type="passenger">
		<route edges="76 853"/>
	</vehicle>
	<vehicle depart="0.1" departLane="0" departPos="20.99768672920099" departSpeed="2.109549e-05" id="313" type="passenger">
		<route edges="853 350"/>
	</vehicle>
	<vehicle depart="0.1" departLane="0" departPos="31.511480538555794" departSpeed="5.1073413e-05" id="314" type="passenger">
		<route edges="76 853"/>
	</vehicle>
	<vehicle depart="0.1" departLane="0" departPos="66.57331524152102" departSpeed="3.3437367" id="318" type="passenger">
		<route edges="348 366"/>
	</vehicle>
	<vehicle depart="0.1" departLane="0" departPos="13.810609310062246" departSpeed="0.00019093721" id="319" type="passenger">
		<route edges="853 350"/>
	</vehicle>
	<vehicle depart="0.1" departLane="0" departPos="62.61861645704554" departSpeed="0.0" id="320" type="passenger">
		<route edges="418 389"/>
	</vehicle>
	<vehicle depart="0.1" departLane="0" departPos="57.42642297267075" departSpeed="2.0599856" id="322" type="passenger">
		<route edges="348 351 388 385"/>
	</vehicle>
	<vehicle depart="0.1" departLane="0" departPos="55.37150411736956" departSpeed="7.3468732e-05" id="324" type="passenger">
		<route edges="418 389"/>
	</vehicle>
	<vehicle depart="0.1" departLane="0" departPos="59.90381212815434" departSpeed="6.2111101e-05" id="325" type="passenger">
		<route edges="856 77"/>
	</vehicle>
	<vehicle depart="0.1" departLane="0" departPos="24.59086882758151" departSpeed="0.00063904073" id="328" type="passenger">
		<route edges="76 853"/>
	</vehicle>
	<vehicle depart="0.1" departLane="0" departPos="48.854758694350856" departSpeed="1.0942276" id="329" type="passenger">
		<route edges="348 351 388"/>
	</vehicle>
	<vehicle depart="0.1" departLane="0" departPos="53.07649048529667" departSpeed="0.00086380342" id="330" type="passenger">
		<route edges="856 77"/>
	</vehicle>
	<vehicle depart="0.1" departLane="0" departPos="17.46756830509215" departSpeed="0.0039039094" id="331" type="passenger">
		<route edges="76 853"/>
	</vehicle>
	<vehicle depart="0.1" departLane="0" departPos="43.509212161094254" departSpeed="0.0043456912" id="334" type="passenger">
		<route edges="418 389"/>
	</vehicle>
	<vehicle depart="0.1" departLane="0" departPos="35.82937261486873" departSpeed="0.14835973" id="336" type="passenger">
		<route edges="348 351"/>
	</vehicle>
	<vehicle depart="0.1" departLane="0" departPos="36.343796111929926" departSpeed="0.018565784" id="337" type="passenger">
		<route edges="418 389"/>
	</vehicle>
	<vehicle depart="0.1" departLane="0" departPos="29.207145994896734" departSpeed="0.065691298" id="340" type="passenger">
		<route edges="418 389"/>
	</vehicle>
	<vehicle depart="0.1" departLane="0" departPos="28.47324316746071" departSpeed="0.087358511" id="342" type="passenger">
		<route edges="348 351"/>
	</vehicle>
	<vehicle depart="0.1" departLane="0" departPos="21.836710628043495" departSpeed="0.16886352" id="345" type="passenger">
		<route edges="418 389"/>
	</vehicle>
	<vehicle depart="0.1" departLane="0" departPos="10.151185768503396" departSpeed="0.015644675" id="346" type="passenger">
		<route edges="76 853"/>
	</vehicle>
	<vehicle depart="0.1" departLane="0" departPos="21.03731777205031" departSpeed="0.15645033" id="349" type="passenger">
		<route edges="348 351"/>
	</vehicle>
	<vehicle depart="0.1" departLane="0" departPos="17.313178733475358" departSpeed="0.11879925" id="352" type="passenger">
		<route edges="856 77"/>
	</vehicle>
	<vehicle depart="0.1" departLane="0" departPos="41.209925065423775" departSpeed="12.277491" id="354" type="passenger">
		<route edges="389 350 347"/>
	</vehicle>
	<vehicle depart="0.1" departLane="0" departPos="14.382727537461177" departSpeed="0.37669247" id="355" type="passenger">
		<route edges="418 389"/>
	</vehicle>
	<vehicle depart="0.1" departLane="0" departPos="13.487011285707325" departSpeed="0.35371143" id="356" type="passenger">
		<route edges="348 351"/>
	</vehicle>
	<vehicle depart="0.1" departLane="0" departPos="9.760801091001026" departSpeed="0.27718566" id="357" type="passenger">
		<route edges="856 77"/>
	</vehicle>
	<vehicle depart="0.1" departLane="0" departPos="6.746859274453005" departSpeed="0.55292836" id="360" type="passenger">
		<route edges="418 389"/>
	</vehicle>
	<vehicle depart="0.1" departLane="0" departPos="11.888940626060807" departSpeed="5.2908323" id="361" type="passenger">
		<route edges="386 389 854"/>
	</vehicle>
	<vehicle depart="0.1" departLane="0" departPos="5.7186415938346835" departSpeed="0.4067579" id="362" type="passenger">
		<route edges="348 351"/>
	</vehicle>
	<vehicle depart="0.1" departLane="0" departPos="48.10152764296533" departSpeed="0.00069959939" id="327" type="motorcycle">
		<route edges="418 389"/>
	</vehicle>
	<vehicle depart="0.1" departLane="0" departPos="14.174801120814589" departSpeed="17.921448" id="332" type="motorcycle">
		<route edges=":40_5 857"/>
	</vehicle>
	<vehicle depart="0.1" departLane="0" departPos="40.86344323197013" departSpeed="0.45396962" id="333" type="motorcycle">
		<route edges="348 351"/>
	</vehicle>
	<vehicle depart="0.1" departLane="0" departPos="13.213090263624677" departSpeed="9.2190079" id="359" type="motorcycle">
		<route edges=":38_4 389 854"/>
	</vehicle>
	<vehicle depart="0.1" departLane="0" departPos="1.25" departSpeed="0.020538862" id="363" type="motorcycle">
		<route edges="76 853"/>
	</vehicle>
	<vehicle depart="0.1" departLane="0" departPos="69.27770447838898" departSpeed="0.0" id="323" type="truck">
		<route edges="856 77"/>
	</vehicle>
</routes>
