<routes>
	<vehicle depart="0.1" departLane="0" departPos="11.552554798086" departSpeed="5.9897463" id="37" type="bicycle">
		<route edges=":33_3 6906"/>
	</vehicle>
	<vehicle depart="0.1" departLane="0" departPos="16.9939573117863" departSpeed="0.0" id="334" type="bus">
		<route edges="6908 6905"/>
	</vehicle>
	<vehicle depart="0.1" departLane="0" departPos="4.747565364967725" departSpeed="7.7613011" id="30" type="passenger">
		<route edges="6909 7395"/>
	</vehicle>
	<vehicle depart="0.1" departLane="0" departPos="69.84603210366014" departSpeed="0.0" id="36" type="passenger">
		<route edges="6911 6909"/>
	</vehicle>
	<vehicle depart="0.1" departLane="0" departPos="37.913651547289156" departSpeed="0.74683506" id="39" type="passenger">
		<route edges=":34_2 6908"/>
	</vehicle>
	<vehicle depart="0.1" departLane="0" departPos="67.27985977892611" departSpeed="0.40916287" id="322" type="passenger">
		<route edges="7394 6908"/>
	</vehicle>
	<vehicle depart="0.1" departLane="0" departPos="69.82760426639099" departSpeed="0.0" id="341" type="passenger">
		<route edges="7392 6908"/>
	</vehicle>
	<vehicle depart="0.1" departLane="0" departPos="62.48271031125628" departSpeed="0.0" id="344" type="passenger">
		<route edges="7392 6908"/>
	</vehicle>
	<vehicle depart="0.1" departLane="0" departPos="59.011148549375875" departSpeed="0.56531664" id="33" type="motorcycle">
		<route edges="7394 6908"/>
	</vehicle>
	<vehicle depart="0.1" departLane="0" departPos="14.027559594041543" departSpeed="0.0" id="325" type="truck">
		<route edges="6940 7395"/>
	</vehicle>
</routes>
