<!-- generated on Tue Feb  9 22:08:44 2021 by Eclipse SUMO netconvert Version 1.8.0
<configuration xmlns:xsi="http://www.w3.org/2001/XMLSchema-instance" xsi:noNamespaceSchemaLocation="http://sumo.dlr.de/xsd/netconvertConfiguration.xsd">

    <input>
        <node-files value="./converted_scenarios/scenario-factory/BEL_Nivelles-7_2_I-1-1/BEL_Nivelles-7_2_I-1-1.nod.xml"/>
        <edge-files value="./converted_scenarios/scenario-factory/BEL_Nivelles-7_2_I-1-1/BEL_Nivelles-7_2_I-1-1.edg.xml"/>
        <connection-files value="./converted_scenarios/scenario-factory/BEL_Nivelles-7_2_I-1-1/BEL_Nivelles-7_2_I-1-1.con.xml"/>
        <tllogic-files value="./converted_scenarios/scenario-factory/BEL_Nivelles-7_2_I-1-1/BEL_Nivelles-7_2_I-1-1.tll.xml"/>
        <type-files value="/home/zen/commonroad-interactive-benchmarks/install/commonroad-map-tool/crmapconverter/sumo_map/templates/DEU.typ.xml"/>
    </input>

    <output>
        <output-file value="./converted_scenarios/scenario-factory/BEL_Nivelles-7_2_I-1-1/BEL_Nivelles-7_2_I-1-1.net.xml"/>
    </output>

    <processing>
        <geometry.remove.keep-edges.explicit value="true"/>
        <geometry.avoid-overlap value="true"/>
        <offset.disable-normalization value="true"/>
    </processing>

    <junctions>
        <no-turnarounds value="true"/>
        <junctions.internal-link-detail value="20"/>
    </junctions>

    <report>
        <aggregate-warnings value="5"/>
    </report>

    <random_number>
        <seed value="1234"/>
    </random_number>

</configuration>
--><net xmlns:xsi="http://www.w3.org/2001/XMLSchema-instance" version="1.6" junctionCornerDetail="5" junctionLinkDetail="20" limitTurnSpeed="5.50" xsi:noNamespaceSchemaLocation="http://sumo.dlr.de/xsd/net_file.xsd">

    <location netOffset="0.00,0.00" convBoundary="510.28,-136.90,666.91,91.14" origBoundary="510.28,-136.90,666.91,91.14" projParameter="!"/>

    <type id="highway.bridleway" priority="1" speed="2.78" allow="pedestrian" oneway="1" width="2.00"/>
    <type id="highway.bus_guideway" priority="1" speed="27.78" allow="bus" oneway="1"/>
    <type id="highway.cycleway" priority="1" speed="8.33" allow="bicycle" oneway="0" width="1.00"/>
    <type id="highway.footway" priority="1" speed="2.78" allow="pedestrian" oneway="1" width="2.00"/>
    <type id="highway.ford" priority="1" speed="2.78" allow="army" oneway="0"/>
    <type id="highway.living_street" priority="2" speed="2.78" disallow="tram rail_urban rail rail_electric rail_fast ship" oneway="0"/>
    <type id="highway.motorway" priority="14" speed="39.44" allow="private emergency authority army vip passenger hov taxi bus coach delivery truck trailer motorcycle evehicle custom1 custom2" oneway="1"/>
    <type id="highway.motorway_link" priority="9" speed="22.22" allow="private emergency authority army vip passenger hov taxi bus coach delivery truck trailer motorcycle evehicle custom1 custom2" oneway="1"/>
    <type id="highway.path" priority="1" speed="2.78" allow="pedestrian bicycle" oneway="0" width="2.00"/>
    <type id="highway.pedestrian" priority="1" speed="2.78" allow="pedestrian" oneway="1" width="2.00"/>
    <type id="highway.primary" priority="12" speed="27.78" disallow="pedestrian tram rail_urban rail rail_electric rail_fast ship" oneway="0"/>
    <type id="highway.primary_link" priority="7" speed="22.22" disallow="pedestrian tram rail_urban rail rail_electric rail_fast ship" oneway="0"/>
    <type id="highway.raceway" priority="15" speed="83.33" allow="vip" oneway="0"/>
    <type id="highway.residential" priority="3" speed="13.89" disallow="pedestrian tram rail_urban rail rail_electric rail_fast ship" oneway="0"/>
    <type id="highway.secondary" priority="11" speed="27.78" disallow="pedestrian tram rail_urban rail rail_electric rail_fast ship" oneway="0"/>
    <type id="highway.secondary_link" priority="6" speed="22.22" disallow="pedestrian tram rail_urban rail rail_electric rail_fast ship" oneway="0"/>
    <type id="highway.service" priority="1" speed="5.56" allow="pedestrian delivery bicycle" oneway="0"/>
    <type id="highway.stairs" priority="1" speed="1.39" allow="pedestrian" oneway="1" width="2.00"/>
    <type id="highway.step" priority="1" speed="1.39" allow="pedestrian" oneway="1" width="2.00"/>
    <type id="highway.steps" priority="1" speed="1.39" allow="pedestrian" oneway="1" width="2.00"/>
    <type id="highway.tertiary" priority="10" speed="22.22" disallow="pedestrian tram rail_urban rail rail_electric rail_fast ship" oneway="0"/>
    <type id="highway.tertiary_link" priority="5" speed="22.22" disallow="pedestrian tram rail_urban rail rail_electric rail_fast ship" oneway="0"/>
    <type id="highway.track" priority="1" speed="5.56" allow="pedestrian motorcycle moped bicycle" oneway="0"/>
    <type id="highway.trunk" priority="13" speed="27.78" disallow="pedestrian bicycle tram rail_urban rail rail_electric rail_fast ship" oneway="0"/>
    <type id="highway.trunk_link" priority="8" speed="22.22" disallow="pedestrian bicycle tram rail_urban rail rail_electric rail_fast ship" oneway="0"/>
    <type id="highway.unclassified" priority="4" speed="13.89" disallow="pedestrian tram rail_urban rail rail_electric rail_fast ship" oneway="0"/>
    <type id="highway.unsurfaced" priority="1" speed="8.33" disallow="tram rail_urban rail rail_electric rail_fast ship" oneway="0"/>
    <type id="railway.highspeed" priority="21" speed="69.44" allow="rail_fast" oneway="1"/>
    <type id="railway.light_rail" priority="19" speed="27.78" allow="rail_urban" oneway="1"/>
    <type id="railway.preserved" priority="16" speed="27.78" allow="rail" oneway="1"/>
    <type id="railway.rail" priority="20" speed="44.44" allow="rail" oneway="1"/>
    <type id="railway.subway" priority="18" speed="27.78" allow="rail_urban" oneway="1"/>
    <type id="railway.tram" priority="17" speed="13.89" allow="tram" oneway="1"/>

    <edge id=":33_0" function="internal">
        <lane id=":33_0_0" index="0" disallow="pedestrian tram rail_urban rail rail_electric rail_fast ship" speed="36.11" length="33.93" width="3.50" shape="628.04,-74.56 620.06,-63.81 613.61,-54.53 608.61,-46.76"/>
    </edge>
    <edge id=":33_1" function="internal">
        <lane id=":33_1_0" index="0" disallow="pedestrian tram rail_urban rail rail_electric rail_fast ship" speed="11.81" length="36.48" width="3.50" shape="628.04,-74.55 626.33,-72.46 624.46,-70.49 622.39,-68.67 620.09,-67.12 618.80,-66.43 617.46,-65.88 616.07,-65.45 614.62,-65.17 613.14,-65.06 611.66,-65.11 610.20,-65.32 608.79,-65.69 607.43,-66.18 606.14,-66.77 604.89,-67.47 602.63,-69.03 600.55,-70.82 597.77,-73.70"/>
    </edge>
    <edge id=":33_2" function="internal">
        <lane id=":33_2_0" index="0" disallow="pedestrian tram rail_urban rail rail_electric rail_fast ship" speed="10.77" length="30.18" width="3.50" shape="600.35,-76.07 602.80,-73.51 604.56,-72.01 606.47,-70.69 607.48,-70.12 608.53,-69.64 609.62,-69.24 610.74,-68.95 611.88,-68.78 613.04,-68.74 614.19,-68.83 615.33,-69.04 616.44,-69.38 617.51,-69.83 618.53,-70.37 620.45,-71.67 622.19,-73.19 623.78,-74.87 625.25,-76.67"/>
    </edge>
    <edge id=":33_3" function="internal">
        <lane id=":33_3_0" index="0" disallow="pedestrian tram rail_urban rail rail_electric rail_fast ship" speed="13.37" length="32.67" width="3.50" shape="600.35,-76.07 603.45,-72.28 605.56,-69.33 607.45,-66.24 609.04,-62.99 609.89,-60.73 610.50,-58.40 610.84,-56.01 610.84,-53.60 610.47,-51.21 609.72,-48.92 608.61,-46.76"/>
    </edge>
    <edge id=":33_4" function="internal">
        <lane id=":33_4_0" index="0" disallow="pedestrian tram rail_urban rail rail_electric rail_fast ship" speed="12.39" length="28.16" width="3.50" shape="605.61,-48.57 606.52,-50.34 607.10,-52.21 607.36,-54.15 607.30,-56.15 606.97,-58.15 606.39,-60.13 605.63,-62.07 604.17,-64.94 602.46,-67.68 600.55,-70.32 597.77,-73.70"/>
    </edge>
    <edge id=":33_5" function="internal">
        <lane id=":33_5_0" index="0" disallow="pedestrian tram rail_urban rail rail_electric rail_fast ship" speed="36.11" length="34.30" width="3.50" shape="605.61,-48.57 610.69,-56.46 617.21,-65.83 625.25,-76.67"/>
    </edge>
    <edge id=":34_0" function="internal">
        <lane id=":34_0_0" index="0" disallow="pedestrian tram rail_urban rail rail_electric rail_fast ship" speed="10.53" length="30.18" width="3.50" shape="580.06,36.49 577.75,33.88 576.04,32.31 574.18,30.92 573.18,30.33 572.13,29.82 571.04,29.42 569.92,29.13 568.77,28.97 567.61,28.95 566.46,29.08 565.33,29.35 564.23,29.74 563.19,30.24 562.19,30.83 560.33,32.22 558.65,33.82 557.11,35.56 555.71,37.40"/>
    </edge>
    <edge id=":34_1" function="internal">
        <lane id=":34_1_0" index="0" disallow="pedestrian tram rail_urban rail rail_electric rail_fast ship" speed="36.11" length="47.18" width="3.50" shape="580.06,36.49 564.13,16.40 551.01,-0.69"/>
    </edge>
    <edge id=":34_2" function="internal">
        <lane id=":34_2_0" index="0" disallow="pedestrian tram rail_urban rail rail_electric rail_fast ship" speed="15.95" length="43.48" width="3.50" shape="580.06,36.49 577.96,33.66 576.11,30.66 574.57,27.49 573.37,24.18 572.57,20.75 572.20,17.25 572.25,13.72 572.72,10.23 573.55,6.81 574.70,3.48 576.14,0.26 577.80,-2.84 578.41,-3.88"/>
    </edge>
    <edge id=":34_3" function="internal">
        <lane id=":34_3_0" index="0" disallow="pedestrian tram rail_urban rail rail_electric rail_fast ship" speed="15.15" length="39.17" width="3.50" shape="581.40,-2.06 580.85,-1.13 579.31,1.73 578.01,4.67 576.96,7.68 576.20,10.76 575.78,13.89 575.72,17.02 576.05,20.14 576.75,23.20 577.82,26.16 579.21,29.01 580.88,31.72 582.79,34.29"/>
    </edge>
    <edge id=":34_4" function="internal">
        <lane id=":34_4_0" index="0" disallow="pedestrian tram rail_urban rail rail_electric rail_fast ship" speed="36.11" length="47.10" width="3.50" shape="581.40,-2.06 571.68,13.62 563.29,26.48 556.30,36.58 555.71,37.40"/>
    </edge>
    <edge id=":34_5" function="internal">
        <lane id=":34_5_0" index="0" disallow="pedestrian tram rail_urban rail rail_electric rail_fast ship" speed="11.50" length="39.27" width="3.50" shape="581.40,-2.06 578.87,1.72 576.96,4.06 574.83,6.20 573.66,7.15 572.41,8.00 571.08,8.72 569.69,9.29 568.22,9.67 566.73,9.84 565.22,9.78 563.73,9.52 562.29,9.07 560.91,8.46 559.59,7.72 558.34,6.87 556.02,4.95 553.89,2.80 551.01,-0.69"/>
    </edge>
    <edge id=":34_6" function="internal">
        <lane id=":34_6_0" index="0" disallow="pedestrian tram rail_urban rail rail_electric rail_fast ship" speed="10.45" length="32.15" width="3.50" shape="553.79,-2.81 556.31,0.25 558.11,2.07 560.09,3.70 561.09,4.38 562.15,4.97 563.23,5.45 564.33,5.80 565.45,6.00 566.56,6.05 567.66,5.92 568.76,5.64 569.82,5.21 570.85,4.64 571.85,3.96 572.78,3.20 574.59,1.40 576.21,-0.58 578.41,-3.88"/>
    </edge>
    <edge id=":34_7" function="internal">
        <lane id=":34_7_0" index="0" disallow="pedestrian tram rail_urban rail rail_electric rail_fast ship" speed="36.11" length="47.09" width="3.50" shape="553.79,-2.81 566.89,14.25 582.79,34.29"/>
    </edge>
    <edge id=":34_8" function="internal">
        <lane id=":34_8_0" index="0" disallow="pedestrian tram rail_urban rail rail_electric rail_fast ship" speed="15.50" length="43.58" width="3.50" shape="553.79,-2.81 554.50,-1.85 556.43,1.01 558.17,4.03 559.67,7.21 560.86,10.53 561.69,13.98 562.11,17.51 562.14,19.91 561.95,22.29 561.56,24.66 560.62,28.08 559.28,31.37 557.63,34.48 555.71,37.40"/>
    </edge>
    <edge id=":34_9" function="internal">
        <lane id=":34_9_0" index="0" disallow="pedestrian tram rail_urban rail rail_electric rail_fast ship" speed="14.70" length="39.09" width="3.50" shape="552.87,35.35 554.60,32.71 556.09,29.92 557.28,26.98 558.11,23.92 558.45,21.83 558.60,19.72 558.57,17.61 558.19,14.46 557.44,11.38 556.36,8.40 555.00,5.53 553.41,2.79 551.64,0.16 551.01,-0.69"/>
    </edge>
    <edge id=":34_10" function="internal">
        <lane id=":34_10_0" index="0" disallow="pedestrian tram rail_urban rail rail_electric rail_fast ship" speed="36.11" length="46.82" width="3.50" shape="552.87,35.35 553.44,34.55 560.39,24.51 568.73,11.72 578.41,-3.88"/>
    </edge>
    <edge id=":34_11" function="internal">
        <lane id=":34_11_0" index="0" disallow="pedestrian tram rail_urban rail rail_electric rail_fast ship" speed="11.58" length="36.83" width="3.50" shape="552.87,35.35 554.50,33.22 556.30,31.18 558.31,29.27 560.54,27.60 561.81,26.86 563.13,26.23 564.52,25.74 565.98,25.40 567.48,25.24 568.98,25.26 570.47,25.47 571.91,25.84 573.28,26.36 574.59,26.99 575.84,27.73 578.06,29.38 580.09,31.26 582.79,34.29"/>
    </edge>
    <edge id=":35_0" function="internal">
        <lane id=":35_0_0" index="0" disallow="pedestrian tram rail_urban rail rail_electric rail_fast ship" speed="10.59" length="30.23" width="3.50" shape="614.49,-18.96 612.69,-20.69 610.82,-22.25 608.86,-23.62 606.77,-24.74 605.74,-25.15 604.67,-25.48 603.59,-25.70 602.51,-25.80 601.44,-25.78 600.38,-25.62 599.34,-25.34 598.32,-24.93 597.34,-24.42 596.40,-23.80 595.49,-23.10 594.65,-22.33 593.01,-20.57 591.55,-18.65 590.21,-16.58"/>
    </edge>
    <edge id=":35_1" function="internal">
        <lane id=":35_1_0" index="0" disallow="pedestrian tram rail_urban rail rail_electric rail_fast ship" speed="13.18" length="33.35" width="3.50" shape="614.49,-18.96 611.12,-22.63 608.82,-25.53 606.75,-28.60 605.02,-31.87 604.11,-34.16 603.45,-36.54 603.11,-38.98 603.14,-41.45 603.30,-42.67 603.91,-45.06 604.89,-47.32 605.50,-48.40"/>
    </edge>
    <edge id=":35_2" function="internal">
        <lane id=":35_2_0" index="0" disallow="pedestrian tram rail_urban rail rail_electric rail_fast ship" speed="12.30" length="28.69" width="3.50" shape="608.50,-46.59 608.00,-45.72 607.20,-43.84 606.73,-41.85 606.63,-40.92 606.66,-38.87 606.99,-36.84 607.59,-34.84 608.41,-32.89 609.98,-30.03 611.84,-27.32 613.92,-24.73 616.96,-21.44"/>
    </edge>
    <edge id=":35_3" function="internal">
        <lane id=":35_3_0" index="0" disallow="pedestrian tram rail_urban rail rail_electric rail_fast ship" speed="36.11" length="35.14" width="3.50" shape="608.50,-46.59 599.35,-31.58 590.21,-16.58"/>
    </edge>
    <edge id=":35_4" function="internal">
        <lane id=":35_4_0" index="0" disallow="pedestrian tram rail_urban rail rail_electric rail_fast ship" speed="36.11" length="35.14" width="3.50" shape="587.21,-18.39 596.36,-33.40 605.50,-48.40"/>
    </edge>
    <edge id=":35_5" function="internal">
        <lane id=":35_5_0" index="0" disallow="pedestrian tram rail_urban rail rail_electric rail_fast ship" speed="11.64" length="36.78" width="3.50" shape="587.21,-18.39 588.77,-20.78 590.48,-23.03 592.40,-25.11 593.45,-26.05 594.56,-26.92 595.74,-27.70 596.99,-28.36 598.30,-28.88 599.66,-29.26 601.06,-29.47 602.47,-29.51 603.88,-29.38 605.27,-29.10 606.62,-28.69 607.93,-28.16 610.42,-26.83 612.74,-25.21 614.91,-23.40 616.96,-21.44"/>
    </edge>

    <edge id="6902" from="33" to="12" priority="3" type="highway.residential" spreadType="center" length="70.00" shape="609.49,-67.02 658.33,-136.90">
        <lane id="6902_0" index="0" disallow="pedestrian tram rail_urban rail rail_electric rail_fast ship" speed="36.11" length="70.00" width="3.50" customShape="1" shape="625.25,-76.67 635.48,-90.20 642.45,-99.93 647.99,-108.23 653.48,-117.16 655.34,-120.68 656.65,-123.92 657.32,-126.32 657.77,-129.28 658.33,-136.74 658.33,-136.90"/>
    </edge>
    <edge id="6903" from="29" to="33" priority="3" type="highway.residential" spreadType="center" length="70.01" shape="661.68,-134.62 612.35,-65.00">
        <lane id="6903_0" index="0" disallow="pedestrian tram rail_urban rail rail_electric rail_fast ship" speed="36.11" length="70.01" width="3.50" customShape="1" shape="661.68,-134.62 661.20,-128.46 660.68,-125.32 659.94,-122.72 658.55,-119.28 656.61,-115.59 651.04,-106.50 645.43,-98.08 638.36,-88.22 628.03,-74.53"/>
    </edge>
    <edge id="6905" from="35" to="33" priority="3" type="highway.residential" spreadType="center" length="0.24" shape="602.08,-28.64 609.22,-66.37">
        <lane id="6905_0" index="0" disallow="pedestrian tram rail_urban rail rail_electric rail_fast ship" speed="36.11" length="0.24" width="3.50" customShape="1" shape="605.50,-48.40 605.63,-48.60"/>
    </edge>
    <edge id="6906" from="33" to="35" priority="3" type="highway.residential" spreadType="center" length="0.27" shape="612.66,-65.72 605.51,-27.99">
        <lane id="6906_0" index="0" disallow="pedestrian tram rail_urban rail rail_electric rail_fast ship" speed="36.11" length="0.27" width="3.50" customShape="1" shape="608.61,-46.76 608.46,-46.53"/>
    </edge>
    <edge id="6908" from="34" to="35" priority="3" type="highway.residential" spreadType="center" length="16.99" shape="565.65,15.66 602.49,-29.54">
        <lane id="6908_0" index="0" disallow="pedestrian tram rail_urban rail rail_electric rail_fast ship" speed="36.11" length="16.99" width="3.50" customShape="1" shape="578.41,-3.88 582.81,-11.13 587.22,-18.41"/>
    </edge>
    <edge id="6909" from="35" to="34" priority="3" type="highway.residential" spreadType="center" length="17.00" shape="605.20,-27.33 568.36,17.87">
        <lane id="6909_0" index="0" disallow="pedestrian tram rail_urban rail rail_electric rail_fast ship" speed="36.11" length="17.00" width="3.50" customShape="1" shape="590.21,-16.58 585.80,-9.32 581.39,-2.05"/>
    </edge>
    <edge id="6911" from="21" to="35" priority="3" type="highway.residential" spreadType="center" length="70.00" shape="664.24,30.05 602.61,-27.15">
        <lane id="6911_0" index="0" disallow="pedestrian tram rail_urban rail rail_electric rail_fast ship" speed="36.11" length="70.00" width="3.46" customShape="1" shape="664.24,30.05 664.21,29.82 663.70,28.94 662.59,27.87 658.88,25.13 654.15,20.42 629.34,-4.12 614.47,-18.98"/>
    </edge>
    <edge id="6912" from="35" to="9" priority="3" type="highway.residential" spreadType="center" length="70.01" shape="604.97,-29.71 666.91,27.51">
        <lane id="6912_0" index="0" disallow="pedestrian tram rail_urban rail rail_electric rail_fast ship" speed="36.11" length="70.01" width="3.50" customShape="1" shape="616.96,-21.44 631.80,-6.61 656.57,17.90 661.19,22.51 664.89,25.23 666.17,26.45 666.91,27.51"/>
    </edge>
    <edge id="6937" from="33" to="15" priority="3" type="highway.residential" spreadType="center" length="70.01" shape="609.77,-64.75 549.42,-121.80">
        <lane id="6937_0" index="0" disallow="pedestrian tram rail_urban rail rail_electric rail_fast ship" speed="36.11" length="70.01" width="3.50" customShape="1" shape="597.77,-73.70 594.65,-77.10 591.33,-80.28 588.16,-82.86 584.76,-85.13 583.85,-85.58 582.84,-85.75 581.33,-86.00 579.90,-86.53 578.58,-87.32 575.60,-89.29 571.95,-92.09 568.53,-95.17 565.38,-98.51 562.48,-102.08 559.57,-106.28 557.48,-109.79 557.16,-110.76 556.79,-112.77 556.44,-113.72 555.03,-115.85 552.75,-118.61 549.83,-121.47 549.42,-121.80"/>
    </edge>
    <edge id="6938" from="28" to="33" priority="3" type="highway.residential" spreadType="center" length="70.00" shape="552.01,-124.16 612.17,-67.29">
        <lane id="6938_0" index="0" disallow="pedestrian tram rail_urban rail rail_electric rail_fast ship" speed="36.11" length="70.00" width="3.50" customShape="1" shape="552.01,-124.16 552.83,-123.45 555.78,-120.46 558.11,-117.55 559.60,-115.21 560.10,-113.93 560.51,-111.84 560.66,-111.24 562.63,-107.98 565.46,-103.95 568.26,-100.53 571.32,-97.34 574.62,-94.42 578.16,-91.77 580.80,-90.01 582.14,-89.50 583.62,-89.12 585.04,-88.70 586.00,-88.35 587.15,-87.76 590.65,-85.36 593.88,-82.69 597.25,-79.45 600.39,-76.02"/>
    </edge>
    <edge id="6940" from="32" to="34" priority="3" type="highway.residential" spreadType="center" length="14.13" shape="544.45,46.63 565.61,15.71">
        <lane id="6940_0" index="0" disallow="pedestrian tram rail_urban rail rail_electric rail_fast ship" speed="36.11" length="14.13" width="3.50" customShape="1" shape="544.45,46.63 545.42,45.37 552.90,35.31"/>
    </edge>
    <edge id="6941" from="34" to="26" priority="3" type="highway.residential" spreadType="center" length="14.15" shape="568.49,17.68 547.24,48.74">
        <lane id="6941_0" index="0" disallow="pedestrian tram rail_urban rail rail_electric rail_fast ship" speed="36.11" length="14.15" width="3.50" customShape="1" shape="555.71,37.40 548.21,47.49 547.24,48.74"/>
    </edge>
    <edge id="7391" from="34" to="27" priority="3" type="highway.residential" spreadType="center" length="70.00" shape="565.61,17.82 510.28,-57.59">
        <lane id="7391_0" index="0" disallow="pedestrian tram rail_urban rail rail_electric rail_fast ship" speed="36.11" length="70.00" width="3.50" customShape="1" shape="551.01,-0.69 532.58,-25.39 523.36,-38.04 515.36,-49.70 510.28,-57.59"/>
    </edge>
    <edge id="7392" from="30" to="34" priority="3" type="highway.residential" spreadType="center" length="70.03" shape="513.07,-59.72 568.43,15.75">
        <lane id="7392_0" index="0" disallow="pedestrian tram rail_urban rail rail_electric rail_fast ship" speed="36.11" length="70.03" width="3.50" customShape="1" shape="513.07,-59.72 518.32,-51.58 526.26,-39.99 535.44,-27.41 553.81,-2.78"/>
    </edge>
    <edge id="7394" from="31" to="34" priority="3" type="highway.residential" spreadType="center" length="70.01" shape="623.80,91.14 565.61,17.82">
        <lane id="7394_0" index="0" disallow="pedestrian tram rail_urban rail rail_electric rail_fast ship" speed="36.11" length="70.01" width="3.50" customShape="1" shape="623.80,91.14 580.05,36.48"/>
    </edge>
    <edge id="7395" from="34" to="23" priority="3" type="highway.residential" spreadType="center" length="70.00" shape="568.35,15.65 626.53,88.94">
        <lane id="7395_0" index="0" disallow="pedestrian tram rail_urban rail rail_electric rail_fast ship" speed="36.11" length="70.00" width="3.50" customShape="1" shape="582.79,34.29 626.53,88.94"/>
    </edge>

    <junction id="12" type="dead_end" x="658.33" y="-136.90" incLanes="6902_0" intLanes="" shape="656.58,-136.92 660.08,-136.88" rightOfWay="edgePriority"/>
    <junction id="15" type="dead_end" x="549.42" y="-121.80" incLanes="6937_0" intLanes="" shape="548.31,-120.46 550.54,-123.15" rightOfWay="edgePriority"/>
    <junction id="21" type="dead_end" x="664.24" y="30.05" incLanes="" intLanes="" shape="665.95,29.79 662.53,30.32" rightOfWay="edgePriority"/>
    <junction id="23" type="dead_end" x="626.53" y="88.94" incLanes="7395_0" intLanes="" shape="627.89,87.85 625.16,90.04" rightOfWay="edgePriority"/>
    <junction id="26" type="dead_end" x="547.24" y="48.74" incLanes="6941_0" intLanes="" shape="548.63,49.81 545.86,47.68" rightOfWay="edgePriority"/>
    <junction id="27" type="dead_end" x="510.28" y="-57.59" incLanes="7391_0" intLanes="" shape="508.81,-56.65 511.75,-58.54" rightOfWay="edgePriority"/>
    <junction id="28" type="dead_end" x="552.01" y="-124.16" incLanes="" intLanes="" shape="550.87,-122.83 553.14,-125.49" rightOfWay="edgePriority"/>
    <junction id="29" type="dead_end" x="661.68" y="-134.62" incLanes="" intLanes="" shape="659.94,-134.75 663.42,-134.48" rightOfWay="edgePriority"/>
    <junction id="30" type="dead_end" x="513.07" y="-59.72" incLanes="" intLanes="" shape="511.60,-58.77 514.54,-60.67" rightOfWay="edgePriority"/>
    <junction id="31" type="dead_end" x="623.80" y="91.14" incLanes="" intLanes="" shape="625.17,90.04 622.44,92.23" rightOfWay="edgePriority"/>
    <junction id="32" type="dead_end" x="544.45" y="46.63" incLanes="" intLanes="" shape="545.84,47.70 543.06,45.57" rightOfWay="edgePriority"/>
    <junction id="33" type="priority" x="610.94" y="-66.04" incLanes="6903_0 6938_0 6905_0" intLanes=":33_0_0 :33_1_0 :33_2_0 :33_3_0 :33_4_0 :33_5_0" shape="629.44,-73.50 623.85,-77.72 620.39,-73.94 616.83,-71.64 613.18,-70.83 609.43,-71.49 605.58,-73.63 601.64,-77.25 596.48,-72.52 600.34,-67.90 603.16,-63.60 604.96,-59.61 605.72,-55.93 605.45,-52.57 604.14,-49.52 610.09,-45.84 613.90,-51.94 616.79,-56.40 619.28,-60.01 621.87,-63.54">
        <request index="0" response="000000" foes="001000" cont="0"/>
        <request index="1" response="110000" foes="111000" cont="0"/>
        <request index="2" response="100000" foes="100000" cont="0"/>
        <request index="3" response="100011" foes="100011" cont="0"/>
        <request index="4" response="000000" foes="000010" cont="0"/>
        <request index="5" response="000000" foes="001110" cont="0"/>
    </junction>
    <junction id="34" type="priority" x="567.00" y="16.76" incLanes="7394_0 6909_0 7392_0 6940_0" intLanes=":34_0_0 :34_1_0 :34_2_0 :34_3_0 :34_4_0 :34_5_0 :34_6_0 :34_7_0 :34_8_0 :34_9_0 :34_10_0 :34_11_0" shape="578.69,37.57 584.15,33.20 580.63,27.88 578.43,22.40 577.56,16.76 578.01,10.95 579.79,4.98 582.90,-1.16 576.91,-4.78 573.52,-0.15 570.04,2.69 566.46,3.74 562.80,3.01 559.05,0.48 555.22,-3.83 549.61,0.36 553.43,6.35 555.85,12.21 556.86,17.93 556.48,23.51 554.69,28.96 551.49,34.27 557.11,38.44 560.69,34.41 564.27,31.93 567.87,31.01 571.47,31.64 575.07,33.83">
        <request index="0" response="000000000000" foes="000100010000" cont="0"/>
        <request index="1" response="000000000000" foes="111100110000" cont="0"/>
        <request index="2" response="000011000000" foes="110011110000" cont="0"/>
        <request index="3" response="000010000000" foes="100010000000" cont="0"/>
        <request index="4" response="000110000111" foes="100110000111" cont="0"/>
        <request index="5" response="011110000110" foes="011110000110" cont="0"/>
        <request index="6" response="000000000000" foes="010000000100" cont="0"/>
        <request index="7" response="000000000000" foes="110000111100" cont="0"/>
        <request index="8" response="000000000011" foes="110000110011" cont="0"/>
        <request index="9" response="000000000010" foes="000000100010" cont="0"/>
        <request index="10" response="000111000110" foes="000111100110" cont="0"/>
        <request index="11" response="000110011110" foes="000110011110" cont="0"/>
    </junction>
    <junction id="35" type="priority" x="603.81" y="-28.40" incLanes="6911_0 6906_0 6908_0" intLanes=":35_0_0 :35_1_0 :35_2_0 :35_3_0 :35_4_0 :35_5_0" shape="613.27,-17.74 618.20,-22.67 614.12,-27.16 611.12,-31.38 609.20,-35.33 608.37,-39.02 608.62,-42.44 609.94,-45.60 604.02,-49.33 585.72,-19.30 591.70,-15.67 594.78,-19.81 598.06,-22.44 601.55,-23.54 605.25,-23.12 609.16,-21.19">
        <request index="0" response="001000" foes="001000" cont="0"/>
        <request index="1" response="111000" foes="111000" cont="0"/>
        <request index="2" response="000000" foes="100000" cont="0"/>
        <request index="3" response="000000" foes="100011" cont="0"/>
        <request index="4" response="000000" foes="000010" cont="0"/>
        <request index="5" response="001100" foes="001110" cont="0"/>
    </junction>
    <junction id="9" type="dead_end" x="666.91" y="27.51" incLanes="6912_0" intLanes="" shape="668.35,26.51 665.48,28.51" rightOfWay="edgePriority"/>

    <connection from="6903" to="6906" fromLane="0" toLane="0" contPos="-4.00" shape="628.03,-74.53 620.06,-63.81 613.61,-54.53 608.61,-46.76" via=":33_0_0" dir="s" state="M"/>
    <connection from="6903" to="6937" fromLane="0" toLane="0" contPos="-4.00" shape="628.03,-74.53 626.33,-72.46 624.46,-70.49 622.39,-68.67 620.09,-67.12 618.80,-66.43 617.46,-65.88 616.07,-65.45 614.62,-65.17 613.14,-65.06 611.66,-65.11 610.20,-65.32 608.79,-65.69 607.43,-66.18 606.14,-66.77 604.89,-67.47 602.63,-69.03 600.55,-70.82 597.77,-73.70" via=":33_1_0" dir="l" state="m"/>
    <connection from="6905" to="6937" fromLane="0" toLane="0" contPos="-4.00" shape="605.61,-48.57 606.52,-50.34 607.10,-52.21 607.36,-54.15 607.30,-56.15 606.97,-58.15 606.39,-60.13 605.63,-62.07 604.17,-64.94 602.46,-67.68 600.55,-70.32 597.77,-73.70" via=":33_4_0" dir="r" state="M"/>
    <connection from="6905" to="6902" fromLane="0" toLane="0" contPos="-4.00" shape="605.61,-48.57 610.69,-56.46 617.21,-65.83 625.25,-76.67" via=":33_5_0" dir="s" state="M"/>
    <connection from="6906" to="6912" fromLane="0" toLane="0" contPos="-4.00" shape="608.50,-46.59 608.00,-45.72 607.20,-43.84 606.73,-41.85 606.63,-40.92 606.66,-38.87 606.99,-36.84 607.59,-34.84 608.41,-32.89 609.98,-30.03 611.84,-27.32 613.92,-24.73 616.96,-21.44" via=":35_2_0" dir="r" state="M"/>
    <connection from="6906" to="6909" fromLane="0" toLane="0" contPos="-4.00" shape="608.50,-46.59 599.35,-31.58 590.21,-16.58" via=":35_3_0" dir="s" state="M"/>
    <connection from="6908" to="6905" fromLane="0" toLane="0" contPos="-4.00" shape="587.22,-18.41 596.36,-33.40 605.50,-48.40" via=":35_4_0" dir="s" state="M"/>
    <connection from="6908" to="6912" fromLane="0" toLane="0" contPos="-4.00" shape="587.22,-18.41 588.77,-20.78 590.48,-23.03 592.40,-25.11 593.45,-26.05 594.56,-26.92 595.74,-27.70 596.99,-28.36 598.30,-28.88 599.66,-29.26 601.06,-29.47 602.47,-29.51 603.88,-29.38 605.27,-29.10 606.62,-28.69 607.93,-28.16 610.42,-26.83 612.74,-25.21 614.91,-23.40 616.96,-21.44" via=":35_5_0" dir="l" state="m"/>
    <connection from="6909" to="7395" fromLane="0" toLane="0" contPos="-4.00" shape="581.39,-2.05 580.85,-1.13 579.31,1.73 578.01,4.67 576.96,7.68 576.20,10.76 575.78,13.89 575.72,17.02 576.05,20.14 576.75,23.20 577.82,26.16 579.21,29.01 580.88,31.72 582.79,34.29" via=":34_3_0" dir="r" state="m"/>
    <connection from="6909" to="6941" fromLane="0" toLane="0" contPos="-4.00" shape="581.39,-2.05 571.68,13.62 563.29,26.48 556.30,36.58 555.71,37.40" via=":34_4_0" dir="s" state="m"/>
    <connection from="6909" to="7391" fromLane="0" toLane="0" contPos="-4.00" shape="581.39,-2.05 578.87,1.72 576.96,4.06 574.83,6.20 573.66,7.15 572.41,8.00 571.08,8.72 569.69,9.29 568.22,9.67 566.73,9.84 565.22,9.78 563.73,9.52 562.29,9.07 560.91,8.46 559.59,7.72 558.34,6.87 556.02,4.95 553.89,2.80 551.01,-0.69" via=":34_5_0" dir="l" state="m"/>