<routes>
	<vehicle depart="0.1" departLane="0" departPos="70.28976301814053" departSpeed="0.0" id="314" type="bicycle">
		<route edges="175 515"/>
	</vehicle>
	<vehicle depart="0.1" departLane="0" departPos="42.66437596938339" departSpeed="0.056548664" id="327" type="bicycle">
		<route edges="537 514"/>
	</vehicle>
	<vehicle depart="0.1" departLane="0" departPos="15.75353736183811" departSpeed="0.00095895112" id="338" type="bus">
		<route edges="517 538"/>
	</vehicle>
	<vehicle depart="0.1" departLane="0" departPos="54.571461843290145" departSpeed="0.0" id="34" type="passenger">
		<route edges="538 511"/>
	</vehicle>
	<vehicle depart="0.1" departLane="0" departPos="53.53799253987255" departSpeed="0.0" id="35" type="passenger">
		<route edges="517 538"/>
	</vehicle>
	<vehicle depart="0.1" departLane="0" departPos="70.30296997271086" departSpeed="0.0" id="36" type="passenger">
		<route edges="517 538"/>
	</vehicle>
	<vehicle depart="0.1" departLane="0" departPos="18.9520979980291" departSpeed="0.0" id="37" type="passenger">
		<route edges="511 169"/>
	</vehicle>
	<vehicle depart="0.1" departLane="0" departPos="4.610861732944756" departSpeed="0.02952157" id="310" type="passenger">
		<route edges="511 169"/>
	</vehicle>
	<vehicle depart="0.1" departLane="0" departPos="11.7428523358876" departSpeed="0.0" id="313" type="passenger">
		<route edges="511 169"/>
	</vehicle>
	<vehicle depart="0.1" departLane="0" departPos="46.4014363447456" departSpeed="0.0" id="315" type="passenger">
		<route edges="517 538"/>
	</vehicle>
	<vehicle depart="0.1" departLane="0" departPos="55.80629857912625" departSpeed="0.0" id="317" type="passenger">
		<route edges="537 514"/>
	</vehicle>
	<vehicle depart="0.1" departLane="0" departPos="18.348117688210454" departSpeed="8.6032934" id="318" type="passenger">
		<route edges="538 511"/>
	</vehicle>
	<vehicle depart="0.1" departLane="0" departPos="39.37854266621592" departSpeed="0.0" id="319" type="passenger">
		<route edges="517 538"/>
	</vehicle>
	<vehicle depart="0.1" departLane="0" departPos="11.585816223543567" departSpeed="11.008301" id="322" type="passenger">
		<route edges=":36_5 518"/>
	</vehicle>
	<vehicle depart="0.1" departLane="0" departPos="70.25500819680445" departSpeed="0.0" id="323" type="passenger">
		<route edges="175 515"/>
	</vehicle>
	<vehicle depart="0.1" departLane="0" departPos="48.68008207500041" departSpeed="0.00012857982" id="324" type="passenger">
		<route edges="537 514"/>
	</vehicle>
	<vehicle depart="0.1" departLane="0" departPos="19.108101646188192" departSpeed="13.221718" id="326" type="passenger">
		<route edges="176"/>
	</vehicle>
	<vehicle depart="0.1" departLane="0" departPos="63.10672905489585" departSpeed="3.6925923e-05" id="328" type="passenger">
		<route edges="175 515"/>
	</vehicle>
	<vehicle depart="0.1" departLane="0" departPos="10.708040217087222" departSpeed="7.147208" id="329" type="passenger">
		<route edges=":35_4 515 518"/>
	</vehicle>
	<vehicle depart="0.1" departLane="0" departPos="22.66492588982858" departSpeed="0.00024469118" id="330" type="passenger">
		<route edges="517 538"/>
	</vehicle>
	<vehicle depart="0.1" departLane="0" departPos="55.61147830844957" departSpeed="0.00066909257" id="331" type="passenger">
		<route edges="175 515"/>
	</vehicle>
	<vehicle depart="0.1" departLane="0" departPos="9.62455458492306" departSpeed="7.5061713" id="332" type="passenger">
		<route edges="541"/>
	</vehicle>
	<vehicle depart="0.1" departLane="0" departPos="41.57517380778793" departSpeed="0.016787424" id="333" type="passenger">
		<route edges="537 514"/>
	</vehicle>
	<vehicle depart="0.1" departLane="0" departPos="34.680125548027476" departSpeed="0.17565171" id="336" type="passenger">
		<route edges="537 514"/>
	</vehicle>
	<vehicle depart="0.1" departLane="0" departPos="43.881390459313906" departSpeed="0.029809762" id="337" type="passenger">
		<route edges="175 515"/>
	</vehicle>
	<vehicle depart="0.1" departLane="0" departPos="23.548169068456847" departSpeed="11.484403" id="340" type="passenger">
		<route edges="173 515 518"/>
	</vehicle>
	<vehicle depart="0.1" departLane="0" departPos="36.59088831171056" departSpeed="0.12051405" id="341" type="passenger">
		<route edges="175 515"/>
	</vehicle>
	<vehicle depart="0.1" departLane="0" departPos="5.144509965759527" departSpeed="11.443329" id="342" type="passenger">
		<route edges="173 176"/>
	</vehicle>
	<vehicle depart="0.1" departLane="0" departPos="30.779482107327055" departSpeed="0.0" id="343" type="passenger">
		<route edges="540 511"/>
	</vehicle>
	<vehicle depart="0.1" departLane="0" departPos="29.26475976662425" departSpeed="0.34487158" id="344" type="passenger">
		<route edges="175 515"/>
	</vehicle>
	<vehicle depart="0.1" departLane="0" departPos="2.5" departSpeed="11.994797" id="346" type="passenger">
		<route edges=":33_5 173 515 518"/>
	</vehicle>
	<vehicle depart="0.1" departLane="0" departPos="21.504799149712344" departSpeed="0.80053021" id="347" type="passenger">
		<route edges="175 515"/>
	</vehicle>
	<vehicle depart="0.1" departLane="0" departPos="43.04175667678444" departSpeed="10.538891" id="348" type="passenger">
		<route edges="170 173 176"/>
	</vehicle>
	<vehicle depart="0.1" departLane="0" departPos="18.515667238733258" departSpeed="0.47468816" id="349" type="passenger">
		<route edges="540 511"/>
	</vehicle>
	<vehicle depart="0.1" departLane="0" departPos="13.438876708880565" departSpeed="1.2682141" id="350" type="passenger">
		<route edges="175 515"/>
	</vehicle>
	<vehicle depart="0.1" departLane="0" departPos="23.48840202029633" departSpeed="7.353138" id="351" type="passenger">
		<route edges="170 173 176"/>
	</vehicle>
	<vehicle depart="0.1" departLane="0" departPos="10.150171434492492" departSpeed="3.8789239" id="352" type="passenger">
		<route edges="170 512 541"/>
	</vehicle>
	<vehicle depart="0.1" departLane="0" departPos="5.712080031722171" departSpeed="0.78540013" id="353" type="passenger">
		<route edges="175 515"/>
	</vehicle>
	<vehicle depart="0.1" departLane="0" departPos="48.511644589680834" departSpeed="0.0052725618" id="334" type="motorcycle">
		<route edges="175 515"/>
	</vehicle>
	<vehicle depart="0.1" departLane="0" departPos="26.42020881784003" departSpeed="1.1530164" id="339" type="motorcycle">
		<route edges="537 514"/>
	</vehicle>
	<vehicle depart="0.1" departLane="0" departPos="23.562573921822555" departSpeed="0.087298819" id="345" type="motorcycle">
		<route edges="540 511"/>
	</vehicle>
	<vehicle depart="0.1" departLane="0" departPos="18.476978302029018" departSpeed="0.0" id="30" type="truck">
		<route edges="514 172"/>
	</vehicle>
	<vehicle depart="0.1" departLane="0" departPos="63.350132312879275" departSpeed="0.0" id="311" type="truck">
		<route edges="517 538"/>
	</vehicle>
	<vehicle depart="0.1" departLane="0" departPos="32.14921533198007" departSpeed="4.2972922e-05" id="325" type="truck">
		<route edges="517 538"/>
	</vehicle>
</routes>
