<!-- generated on 2020-12-18 17:09:35.514739 by ipykernel_launcher.py v1_2_0+5214-53edc58fcd
-->
<tlLogics/>
