<routes>
	<vehicle depart="0.1" departLane="0" departPos="10.0" departSpeed="4.0" id="1" type="bicycle">
		<route edges="5 6"/>
	</vehicle>
	<vehicle depart="0.1" departLane="0" departPos="7.0" departSpeed="11.0" id="2" type="passenger">
		<route edges="6"/>
	</vehicle>
	<vehicle depart="0.1" departLane="0" departPos="17.0" departSpeed="5.0" id="3" type="passenger">
		<route edges="7"/>
	</vehicle>
	<vehicle depart="0.1" departLane="0" departPos="20.0" departSpeed="7.0" id="4" type="passenger">
		<route edges="8"/>
	</vehicle>
</routes>
