<routes>
	<vehicle depart="0.1" departLane="0" departPos="1.0" departSpeed="7.7600069" id="363" type="bicycle">
		<route edges=":40_1 8945"/>
	</vehicle>
	<vehicle depart="0.1" departLane="0" departPos="17.495481805930027" departSpeed="0.122743" id="318" type="passenger">
		<route edges=":40_2 8940"/>
	</vehicle>
	<vehicle depart="0.1" departLane="1" departPos="24.643985277786822" departSpeed="0.36831251" id="321" type="passenger">
		<route edges="8943 8838"/>
	</vehicle>
	<vehicle depart="0.1" departLane="1" departPos="15.163934376138043" departSpeed="1.4051593" id="327" type="passenger">
		<route edges="8693 8940"/>
	</vehicle>
	<vehicle depart="0.1" departLane="0" departPos="25.633385876654756" departSpeed="7.7865079" id="328" type="passenger">
		<route edges=":40_8 8838"/>
	</vehicle>
	<vehicle depart="0.1" departLane="0" departPos="22.892632560694715" departSpeed="0.71713556" id="329" type="passenger">
		<route edges="9791 8693"/>
	</vehicle>
	<vehicle depart="0.1" departLane="0" departPos="18.181062356744608" departSpeed="9.4891307" id="343" type="passenger">
		<route edges=":40_6 8940 8937"/>
	</vehicle>
	<vehicle depart="0.1" departLane="0" departPos="20.725032538074757" departSpeed="8.6842438" id="346" type="passenger">
		<route edges="8943 8940"/>
	</vehicle>
	<vehicle depart="0.1" departLane="0" departPos="22.17181009809217" departSpeed="8.8810039" id="361" type="passenger">
		<route edges="8693 8945"/>
	</vehicle>
</routes>
