<routes>
	<vehicle depart="0.1" departLane="1" departPos="46.279345544807455" departSpeed="12.8628" id="34" type="passenger">
		<route edges="64"/>
	</vehicle>
	<vehicle depart="0.1" departLane="0" departPos="31.33253350866135" departSpeed="9.096" id="35" type="passenger">
		<route edges="64"/>
	</vehicle>
	<vehicle depart="0.1" departLane="4" departPos="28.190448774302318" departSpeed="14.0704" id="39" type="passenger">
		<route edges="64"/>
	</vehicle>
	<vehicle depart="0.1" departLane="1" departPos="34.71726390143469" departSpeed="13.8744" id="40" type="passenger">
		<route edges="64"/>
	</vehicle>
	<vehicle depart="0.1" departLane="4" departPos="49.18770692524233" departSpeed="11.2402" id="43" type="passenger">
		<route edges="64"/>
	</vehicle>
	<vehicle depart="0.1" departLane="2" departPos="33.93967965514128" departSpeed="10.1063" id="47" type="passenger">
		<route edges="64"/>
	</vehicle>
	<vehicle depart="0.1" departLane="0" departPos="49.270620671136605" departSpeed="10.5392" id="48" type="passenger">
		<route edges="64"/>
	</vehicle>
	<vehicle depart="0.1" departLane="0" departPos="39.353938624920744" departSpeed="10.5162" id="53" type="passenger">
		<route edges="64"/>
	</vehicle>
	<vehicle depart="0.1" departLane="3" departPos="21.966081663354235" departSpeed="10.5686" id="56" type="passenger">
		<route edges="64"/>
	</vehicle>
	<vehicle depart="0.1" departLane="0" departPos="0" departSpeed="10.0584" id="60" type="passenger">
		<route edges="64"/>
	</vehicle>
</routes>
