<routes>
	<vehicle depart="0.1" departLane="0" departPos="22.21595641273855" departSpeed="0.24621591" id="314" type="passenger">
		<route edges="10439 10595"/>
	</vehicle>
	<vehicle depart="0.1" departLane="0" departPos="10.370956004025542" departSpeed="1.5383305" id="321" type="passenger">
		<route edges="10439 10595"/>
	</vehicle>
	<vehicle depart="0.1" departLane="0" departPos="35.94121406709958" departSpeed="1.9230799" id="322" type="passenger">
		<route edges=":63_2 10439 10595"/>
	</vehicle>
	<vehicle depart="0.1" departLane="0" departPos="7.36153248598626" departSpeed="0.20894149" id="337" type="passenger">
		<route edges=":63_3 10310"/>
	</vehicle>
	<vehicle depart="0.1" departLane="0" departPos="16.45341264800121" departSpeed="9.7110066" id="338" type="passenger">
		<route edges=":63_0 10310 10589"/>
	</vehicle>
	<vehicle depart="0.1" departLane="0" departPos="29.840169572274696" departSpeed="11.591039" id="352" type="passenger">
		<route edges=":65_2 10440 10310"/>
	</vehicle>
</routes>
