<routes>
	<vehicle depart="0.1" departLane="0" departPos="0" departSpeed="8.3495" id="35" type="passenger">
		<route edges="28"/>
	</vehicle>
	<vehicle depart="0.1" departLane="0" departPos="109.21366832846871" departSpeed="8.2934" id="36" type="passenger">
		<route edges="25 33 28"/>
	</vehicle>
	<vehicle depart="0.1" departLane="0" departPos="120.11739087031957" departSpeed="7.8357" id="37" type="passenger">
		<route edges="27 30 26"/>
	</vehicle>
	<vehicle depart="0.1" departLane="0" departPos="102.92118546307375" departSpeed="8.3172" id="38" type="passenger">
		<route edges="27 30 26"/>
	</vehicle>
	<vehicle depart="0.1" departLane="0" departPos="44.002621218529946" departSpeed="8.7672" id="39" type="passenger">
		<route edges="28"/>
	</vehicle>
	<vehicle depart="0.1" departLane="0" departPos="135.58261215917054" departSpeed="7.7091" id="40" type="passenger">
		<route edges="27 30 26"/>
	</vehicle>
	<vehicle depart="0.1" departLane="0" departPos="61.13709394619617" departSpeed="8.6961" id="41" type="passenger">
		<route edges="27 34 23"/>
	</vehicle>
	<vehicle depart="0.1" departLane="0" departPos="45.38004270112204" departSpeed="8.4697" id="310" type="passenger">
		<route edges="27 34 23"/>
	</vehicle>
	<vehicle depart="0.1" departLane="0" departPos="0" departSpeed="7.9887" id="312" type="passenger">
		<route edges="27 34 23"/>
	</vehicle>
	<vehicle depart="0.1" departLane="0" departPos="0" departSpeed="7.0164" id="314" type="passenger">
		<route edges="27 34 23"/>
	</vehicle>
	<vehicle depart="0.1" departLane="0" departPos="0" departSpeed="4.7625" id="316" type="passenger">
		<route edges="27 34 23"/>
	</vehicle>
	<vehicle depart="0.1" departLane="0" departPos="0" departSpeed="2.1725" id="317" type="passenger">
		<route edges="25 31 23"/>
	</vehicle>
</routes>
