<!-- generated on 2020-12-18 16:00:28.207506 by ipykernel_launcher.py v1_2_0+5214-53edc58fcd
-->
<nodes>
	<node id="1" type="from" x="53.75565" y="74.3879"/>
	<node id="2" type="to" x="44.1749" y="74.708"/>
	<node id="3" type="to" x="36.71745" y="88.77035000000001"/>
	<node id="4" type="from" x="-55.66065" y="12.1438"/>
	<node id="5" type="to" x="-41.641299999999994" y="5.177633333333333"/>
	<node id="6" type="to" x="-6.38805" y="15.651499999999999"/>
	<node id="7" type="to" x="7.3126" y="36.440916666666666"/>
	<node id="8" type="to" x="11.125283333333334" y="44.030233333333335"/>
	<node id="9" type="to" x="21.01855" y="63.983466666666665"/>
	<node id="10" type="to" x="33.859849999999994" y="90.17411666666665"/>
	<node id="11" type="to" x="-33.29745" y="-0.84935"/>
	<node id="12" type="to" x="-11.190574999999999" y="-12.233475"/>
	<node id="13" type="to" x="3.2967250000000003" y="-19.4402"/>
	<node id="14" type="to" x="18.01435" y="-28.69855"/>
	<node id="15" type="to" x="-38.72485" y="-15.44405"/>
	<node id="16" type="to" x="-64.88414999999999" y="-85.26365"/>
	<node id="17" type="from" x="23.318875000000002" y="-17.902225"/>
	<node id="18" type="to" x="11.055674999999999" y="-11.9072"/>
	<node id="19" type="to" x="5.910866666666667" y="-7.3977"/>
	<node id="20" type="to" x="-0.032383333333333354" y="-4.467416666666666"/>
	<node id="21" type="to" x="-6.761925" y="-3.03725"/>
	<node id="22" type="to" x="-28.8493" y="7.96865"/>
	<node id="23" type="to" x="-38.474849999999996" y="12.71205"/>
	<node id="24" type="to" x="-50.874816666666675" y="21.79131666666667"/>
	<node id="25" type="to" x="43.9642" y="69.64795000000001"/>
	<node id="26" type="to" x="53.545" y="69.32785"/>
	<node id="27" type="from" x="-53.6385875" y="-91.03659999999999"/>
	<node id="28" type="to" x="-49.56965" y="-83.09852500000001"/>
	<node id="29" type="to" x="-42.99082000000001" y="-66.43413"/>
	<node id="30" type="to" x="-21.936" y="-24.26936"/>
	<node id="31" type="to" x="-16.786516666666667" y="-13.195433333333334"/>
	<node id="32" type="to" x="-9.426499999999999" y="2.1800666666666664"/>
	<node id="33" type="from" x="22.984460000000002" y="95.51638"/>
	<node id="34" type="to" x="10.02582" y="69.14146000000001"/>
	<node id="35" type="to" x="0.26425" y="49.46446"/>
	<node id="36" type="to" x="-4.909908333333333" y="42.548883333333336"/>
	<node id="37" type="to" x="-15.906125000000001" y="20.45290833333333"/>
	<node id="38" type="to" x="-23.238199999999996" y="8.930966666666668"/>
	<node id="39" type="to" x="-30.5645" y="-5.963216666666667"/>
</nodes>
