<!-- generated on Tue Feb  9 22:11:56 2021 by Eclipse SUMO netconvert Version 1.8.0
<configuration xmlns:xsi="http://www.w3.org/2001/XMLSchema-instance" xsi:noNamespaceSchemaLocation="http://sumo.dlr.de/xsd/netconvertConfiguration.xsd">

    <input>
        <node-files value="./converted_scenarios/scenario-factory/DEU_Rheinbach-2_4_I-1-1/DEU_Rheinbach-2_4_I-1-1.nod.xml"/>
        <edge-files value="./converted_scenarios/scenario-factory/DEU_Rheinbach-2_4_I-1-1/DEU_Rheinbach-2_4_I-1-1.edg.xml"/>
        <connection-files value="./converted_scenarios/scenario-factory/DEU_Rheinbach-2_4_I-1-1/DEU_Rheinbach-2_4_I-1-1.con.xml"/>
        <tllogic-files value="./converted_scenarios/scenario-factory/DEU_Rheinbach-2_4_I-1-1/DEU_Rheinbach-2_4_I-1-1.tll.xml"/>
        <type-files value="/home/zen/commonroad-interactive-benchmarks/install/commonroad-map-tool/crmapconverter/sumo_map/templates/DEU.typ.xml"/>
    </input>

    <output>
        <output-file value="./converted_scenarios/scenario-factory/DEU_Rheinbach-2_4_I-1-1/DEU_Rheinbach-2_4_I-1-1.net.xml"/>
    </output>

    <processing>
        <geometry.remove.keep-edges.explicit value="true"/>
        <geometry.avoid-overlap value="true"/>
        <offset.disable-normalization value="true"/>
    </processing>

    <junctions>
        <no-turnarounds value="true"/>
        <junctions.internal-link-detail value="20"/>
    </junctions>

    <report>
        <aggregate-warnings value="5"/>
    </report>

    <random_number>
        <seed value="1234"/>
    </random_number>

</configuration>
--><net xmlns:xsi="http://www.w3.org/2001/XMLSchema-instance" version="1.6" junctionCornerDetail="5" junctionLinkDetail="20" limitTurnSpeed="5.50" xsi:noNamespaceSchemaLocation="http://sumo.dlr.de/xsd/net_file.xsd">

    <location netOffset="0.00,0.00" convBoundary="351.37,471.42,641.73,731.01" origBoundary="351.37,471.42,641.73,731.01" projParameter="!"/>

    <type id="highway.bridleway" priority="1" speed="2.78" allow="pedestrian" oneway="1" width="2.00"/>
    <type id="highway.bus_guideway" priority="1" speed="27.78" allow="bus" oneway="1"/>
    <type id="highway.cycleway" priority="1" speed="8.33" allow="bicycle" oneway="0" width="1.00"/>
    <type id="highway.footway" priority="1" speed="2.78" allow="pedestrian" oneway="1" width="2.00"/>
    <type id="highway.ford" priority="1" speed="2.78" allow="army" oneway="0"/>
    <type id="highway.living_street" priority="2" speed="2.78" disallow="tram rail_urban rail rail_electric rail_fast ship" oneway="0"/>
    <type id="highway.motorway" priority="14" speed="39.44" allow="private emergency authority army vip passenger hov taxi bus coach delivery truck trailer motorcycle evehicle custom1 custom2" oneway="1"/>
    <type id="highway.motorway_link" priority="9" speed="22.22" allow="private emergency authority army vip passenger hov taxi bus coach delivery truck trailer motorcycle evehicle custom1 custom2" oneway="1"/>
    <type id="highway.path" priority="1" speed="2.78" allow="pedestrian bicycle" oneway="0" width="2.00"/>
    <type id="highway.pedestrian" priority="1" speed="2.78" allow="pedestrian" oneway="1" width="2.00"/>
    <type id="highway.primary" priority="12" speed="27.78" disallow="pedestrian tram rail_urban rail rail_electric rail_fast ship" oneway="0"/>
    <type id="highway.primary_link" priority="7" speed="22.22" disallow="pedestrian tram rail_urban rail rail_electric rail_fast ship" oneway="0"/>
    <type id="highway.raceway" priority="15" speed="83.33" allow="vip" oneway="0"/>
    <type id="highway.residential" priority="3" speed="13.89" disallow="pedestrian tram rail_urban rail rail_electric rail_fast ship" oneway="0"/>
    <type id="highway.secondary" priority="11" speed="27.78" disallow="pedestrian tram rail_urban rail rail_electric rail_fast ship" oneway="0"/>
    <type id="highway.secondary_link" priority="6" speed="22.22" disallow="pedestrian tram rail_urban rail rail_electric rail_fast ship" oneway="0"/>
    <type id="highway.service" priority="1" speed="5.56" allow="pedestrian delivery bicycle" oneway="0"/>
    <type id="highway.stairs" priority="1" speed="1.39" allow="pedestrian" oneway="1" width="2.00"/>
    <type id="highway.step" priority="1" speed="1.39" allow="pedestrian" oneway="1" width="2.00"/>
    <type id="highway.steps" priority="1" speed="1.39" allow="pedestrian" oneway="1" width="2.00"/>
    <type id="highway.tertiary" priority="10" speed="22.22" disallow="pedestrian tram rail_urban rail rail_electric rail_fast ship" oneway="0"/>
    <type id="highway.tertiary_link" priority="5" speed="22.22" disallow="pedestrian tram rail_urban rail rail_electric rail_fast ship" oneway="0"/>
    <type id="highway.track" priority="1" speed="5.56" allow="pedestrian motorcycle moped bicycle" oneway="0"/>
    <type id="highway.trunk" priority="13" speed="27.78" disallow="pedestrian bicycle tram rail_urban rail rail_electric rail_fast ship" oneway="0"/>
    <type id="highway.trunk_link" priority="8" speed="22.22" disallow="pedestrian bicycle tram rail_urban rail rail_electric rail_fast ship" oneway="0"/>
    <type id="highway.unclassified" priority="4" speed="13.89" disallow="pedestrian tram rail_urban rail rail_electric rail_fast ship" oneway="0"/>
    <type id="highway.unsurfaced" priority="1" speed="8.33" disallow="tram rail_urban rail rail_electric rail_fast ship" oneway="0"/>
    <type id="railway.highspeed" priority="21" speed="69.44" allow="rail_fast" oneway="1"/>
    <type id="railway.light_rail" priority="19" speed="27.78" allow="rail_urban" oneway="1"/>
    <type id="railway.preserved" priority="16" speed="27.78" allow="rail" oneway="1"/>
    <type id="railway.rail" priority="20" speed="44.44" allow="rail" oneway="1"/>
    <type id="railway.subway" priority="18" speed="27.78" allow="rail_urban" oneway="1"/>
    <type id="railway.tram" priority="17" speed="13.89" allow="tram" oneway="1"/>

    <edge id=":36_0" function="internal">
        <lane id=":36_0_0" index="0" disallow="pedestrian tram rail_urban rail rail_electric rail_fast ship" speed="36.11" length="2.99" width="3.50" shape="424.20,589.57 423.41,586.69"/>
    </edge>
    <edge id=":52_0" function="internal">
        <lane id=":52_0_0" index="0" disallow="pedestrian tram rail_urban rail rail_electric rail_fast ship" speed="36.11" length="3.00" width="3.50" shape="466.21,689.81 467.01,692.70"/>
    </edge>
    <edge id=":53_0" function="internal">
        <lane id=":53_0_0" index="0" disallow="pedestrian tram rail_urban rail rail_electric rail_fast ship" speed="36.11" length="2.90" width="3.48" shape="471.93,714.71 471.97,714.93 472.01,715.12 472.04,715.29 472.07,715.45 472.10,715.59 472.12,715.73 472.15,715.85 472.17,715.97 472.19,716.08 472.21,716.19 472.23,716.31 472.25,716.43 472.26,716.55 472.28,716.69 472.29,716.83 472.30,716.99 472.32,717.17 472.33,717.36 472.34,717.58"/>
    </edge>
    <edge id=":63_0" function="internal">
        <lane id=":63_0_0" index="0" disallow="pedestrian tram rail_urban rail rail_electric rail_fast ship" speed="36.11" length="3.04" width="3.50" shape="460.27,694.62 459.47,691.69"/>
        <lane id=":63_0_1" index="1" disallow="pedestrian tram rail_urban rail rail_electric rail_fast ship" speed="36.11" length="3.03" width="3.48" shape="463.64,693.67 462.84,690.75"/>
    </edge>
    <edge id=":65_0" function="internal">
        <lane id=":65_0_0" index="0" disallow="pedestrian tram rail_urban rail rail_electric rail_fast ship" speed="36.11" length="2.99" width="3.50" shape="426.79,585.77 427.58,588.65"/>
    </edge>
    <edge id=":68_0" function="internal">
        <lane id=":68_0_0" index="0" disallow="pedestrian tram rail_urban rail rail_electric rail_fast ship" speed="10.66" length="25.80" width="3.50" shape="456.03,584.90 452.93,585.83 450.92,586.59 448.97,587.50 447.11,588.58 445.40,589.88 444.61,590.61 443.89,591.41 443.25,592.27 442.68,593.18 442.22,594.15 441.85,595.16 441.59,596.20 441.43,597.27 441.36,598.34 441.49,600.48 441.90,602.59"/>
    </edge>
    <edge id=":68_1" function="internal">
        <lane id=":68_1_0" index="0" disallow="pedestrian tram rail_urban rail rail_electric rail_fast ship" speed="12.26" length="34.21" width="3.50" shape="456.03,584.90 452.15,585.70 449.54,585.99 446.91,586.04 444.29,585.78 441.74,585.17 440.50,584.72 439.31,584.16 438.17,583.51 437.08,582.76 436.07,581.92 435.13,581.00 433.47,578.97 432.09,576.72 430.98,574.34 430.08,571.87 429.70,570.60"/>
    </edge>
    <edge id=":68_2" function="internal">
        <lane id=":68_2_0" index="0" disallow="pedestrian tram rail_urban rail rail_electric rail_fast ship" speed="11.25" length="28.70" width="3.50" shape="433.07,569.66 433.40,570.75 434.17,572.90 435.12,574.92 436.28,576.79 437.67,578.49 438.42,579.21 439.24,579.88 440.11,580.48 441.03,581.00 441.99,581.45 442.96,581.80 445.10,582.30 447.29,582.51 449.52,582.47 451.76,582.22 455.15,581.52"/>
    </edge>
    <edge id=":68_3" function="internal">
        <lane id=":68_3_0" index="0" disallow="pedestrian tram rail_urban rail rail_electric rail_fast ship" speed="36.11" length="34.09" width="3.50" shape="433.07,569.66 439.83,594.59 441.90,602.59"/>
    </edge>
    <edge id=":68_4" function="internal">
        <lane id=":68_4_0" index="0" disallow="pedestrian tram rail_urban rail rail_electric rail_fast ship" speed="36.11" length="34.01" width="3.50" shape="438.50,603.45 436.45,595.48 429.70,570.60"/>
    </edge>
    <edge id=":68_5" function="internal">
        <lane id=":68_5_0" index="0" disallow="pedestrian tram rail_urban rail rail_electric rail_fast ship" speed="11.74" length="31.35" width="3.50" shape="438.50,603.45 438.01,600.92 437.83,598.33 437.90,596.96 438.07,595.62 438.38,594.30 438.82,593.00 439.38,591.75 440.06,590.57 440.85,589.47 441.73,588.45 442.71,587.50 444.74,585.90 446.95,584.58 449.24,583.48 451.59,582.58 455.15,581.52"/>
    </edge>
    <edge id=":69_0" function="internal">
        <lane id=":69_0_0" index="0" disallow="pedestrian tram rail_urban rail rail_electric rail_fast ship" speed="8.32" length="14.55" width="3.48" shape="444.31,626.24 443.53,623.38 442.96,621.49 442.32,619.62 441.96,618.70 441.57,617.79 441.12,616.91 440.60,616.07 439.92,615.35 437.23,615.42"/>
    </edge>
    <edge id=":69_1" function="internal">
        <lane id=":69_1_0" index="0" disallow="pedestrian tram rail_urban rail rail_electric rail_fast ship" speed="36.11" length="23.26" width="3.50" shape="444.31,626.24 441.44,614.97 438.57,603.70"/>
    </edge>
    <edge id=":69_2" function="internal">
        <lane id=":69_2_0" index="0" disallow="pedestrian tram rail_urban rail rail_electric rail_fast ship" speed="36.11" length="23.24" width="3.50" shape="441.96,602.84 444.83,614.11 447.69,625.36"/>
    </edge>
    <edge id=":69_3" function="internal">
        <lane id=":69_3_0" index="0" disallow="pedestrian tram rail_urban rail rail_electric rail_fast ship" speed="8.21" length="15.62" width="3.48" shape="441.96,602.84 442.27,604.15 442.71,606.76 442.82,608.16 442.80,609.60 442.54,611.12 441.92,612.62 440.85,613.96 437.23,615.42"/>
    </edge>
    <edge id=":69_4" function="internal">
        <lane id=":69_4_0" index="0" disallow="pedestrian tram rail_urban rail rail_electric rail_fast ship" speed="6.16" length="8.77" width="3.50" shape="440.11,611.50 438.98,611.13 439.32,610.26 439.43,609.31 439.41,608.37 439.31,607.42 439.17,606.48 438.79,604.62 438.57,603.70"/>
    </edge>
    <edge id=":69_5" function="internal">
        <lane id=":69_5_0" index="0" disallow="pedestrian tram rail_urban rail rail_electric rail_fast ship" speed="9.05" length="16.29" width="3.50" shape="440.11,611.50 440.28,611.82 441.90,612.75 442.96,613.82 443.77,614.94 444.43,616.07 445.01,617.24 445.94,619.54 446.72,621.88 447.69,625.36"/>
    </edge>
    <edge id=":70_0" function="internal">
        <lane id=":70_0_0" index="0" disallow="pedestrian tram rail_urban rail rail_electric rail_fast ship" speed="10.84" length="29.64" width="3.50" shape="543.77,581.59 543.18,578.03 542.57,575.78 541.74,573.63 540.65,571.62 540.03,570.74 539.32,569.91 538.55,569.16 537.70,568.50 536.79,567.93 535.83,567.46 534.81,567.08 533.75,566.79 532.65,566.59 531.56,566.48 529.23,566.46 526.92,566.70 523.40,567.43"/>
    </edge>
    <edge id=":70_1" function="internal">
        <lane id=":70_1_0" index="0" disallow="pedestrian tram rail_urban rail rail_electric rail_fast ship" speed="36.11" length="40.54" width="3.50" shape="543.77,581.59 541.37,561.45 538.98,541.33"/>
    </edge>
    <edge id=":70_2" function="internal">
        <lane id=":70_2_0" index="0" disallow="pedestrian tram rail_urban rail rail_electric rail_fast ship" speed="12.70" length="36.12" width="3.50" shape="543.77,581.59 543.64,580.31 543.49,576.59 543.62,574.05 543.98,571.51 544.62,569.00 545.59,566.56 546.88,564.29 547.71,563.17 549.51,561.26 551.58,559.62 553.83,558.30 556.19,557.27 558.64,556.49 562.32,555.71"/>
    </edge>
    <edge id=":70_3" function="internal">
        <lane id=":70_3_0" index="0" disallow="pedestrian tram rail_urban rail rail_electric rail_fast ship" speed="11.73" length="30.67" width="3.50" shape="562.86,559.16 559.65,559.84 557.56,560.52 555.55,561.40 553.67,562.51 551.95,563.87 550.46,565.48 549.82,566.36 548.74,568.27 547.94,570.31 547.41,572.43 547.10,574.60 546.99,576.79 547.13,580.07 547.24,581.16"/>
    </edge>
    <edge id=":70_4" function="internal">
        <lane id=":70_4_0" index="0" disallow="pedestrian tram rail_urban rail rail_electric rail_fast ship" speed="36.11" length="40.33" width="3.50" shape="562.86,559.16 559.81,559.65 547.59,561.87 535.46,564.47 523.40,567.43"/>
    </edge>
    <edge id=":70_5" function="internal">
        <lane id=":70_5_0" index="0" disallow="pedestrian tram rail_urban rail rail_electric rail_fast ship" speed="12.08" length="34.48" width="3.50" shape="562.86,559.16 558.90,559.58 556.25,559.59 553.61,559.34 551.03,558.76 549.77,558.33 548.56,557.79 547.39,557.16 546.29,556.42 545.26,555.59 544.31,554.66 543.45,553.65 542.67,552.58 541.38,550.27 540.39,547.81 539.66,545.25 538.98,541.33"/>
    </edge>
    <edge id=":70_6" function="internal">
        <lane id=":70_6_0" index="0" disallow="pedestrian tram rail_urban rail rail_electric rail_fast ship" speed="11.07" length="28.75" width="3.50" shape="542.45,540.92 543.05,544.32 543.66,546.48 544.49,548.54 545.57,550.47 546.19,551.32 546.88,552.12 547.64,552.86 548.45,553.52 549.33,554.11 550.26,554.62 551.24,555.04 552.23,555.38 554.40,555.87 556.62,556.08 558.87,556.07 562.32,555.71"/>
    </edge>
    <edge id=":70_7" function="internal">
        <lane id=":70_7_0" index="0" disallow="pedestrian tram rail_urban rail rail_electric rail_fast ship" speed="36.11" length="40.52" width="3.50" shape="542.45,540.92 544.85,561.04 547.24,581.16"/>
    </edge>
    <edge id=":70_8" function="internal">
        <lane id=":70_8_0" index="0" disallow="pedestrian tram rail_urban rail rail_electric rail_fast ship" speed="13.23" length="36.33" width="3.50" shape="542.45,540.92 542.70,544.58 542.63,547.08 542.33,549.57 541.76,552.03 540.89,554.43 539.71,556.70 538.24,558.80 536.51,560.68 534.58,562.33 532.50,563.74 530.29,564.93 526.91,566.35 523.40,567.43"/>
    </edge>
    <edge id=":70_9" function="internal">
        <lane id=":70_9_0" index="0" disallow="pedestrian tram rail_urban rail rail_electric rail_fast ship" speed="12.30" length="31.27" width="3.50" shape="522.51,564.04 525.62,563.09 528.60,561.85 530.50,560.82 532.28,559.62 533.93,558.23 535.40,556.65 536.64,554.89 537.64,552.98 538.38,550.95 538.87,548.85 539.14,546.72 539.20,544.56 538.98,541.33"/>
    </edge>
    <edge id=":70_10" function="internal">
        <lane id=":70_10_0" index="0" disallow="pedestrian tram rail_urban rail rail_electric rail_fast ship" speed="36.11" length="40.69" width="3.50" shape="522.51,564.04 534.68,561.06 546.92,558.44 559.23,556.20 562.32,555.71"/>
    </edge>
    <edge id=":70_11" function="internal">
        <lane id=":70_11_0" index="0" disallow="pedestrian tram rail_urban rail rail_electric rail_fast ship" speed="11.86" length="35.75" width="3.50" shape="522.51,564.04 526.56,563.20 529.30,562.92 532.05,562.94 533.41,563.08 534.77,563.32 536.09,563.68 537.38,564.16 538.62,564.77 539.78,565.49 540.87,566.34 541.86,567.30 542.75,568.34 543.54,569.46 544.86,571.88 545.84,574.44 546.56,577.10 547.24,581.16"/>
    </edge>
    <edge id=":71_0" function="internal">
        <lane id=":71_0_0" index="0" disallow="pedestrian tram rail_urban rail rail_electric rail_fast ship" speed="36.11" length="38.62" width="3.50" shape="494.40,574.99 475.68,579.83 457.01,584.65"/>
    </edge>
    <edge id=":71_1" function="internal">
        <lane id=":71_1_0" index="0" disallow="pedestrian tram rail_urban rail rail_electric rail_fast ship" speed="12.06" length="34.50" width="3.50" shape="494.40,575.00 490.47,575.81 487.83,576.09 485.18,576.09 482.55,575.76 481.26,575.46 480.00,575.04 478.78,574.52 477.62,573.89 476.51,573.16 475.48,572.32 474.53,571.40 473.66,570.40 472.15,568.22 470.94,565.87 469.98,563.40 468.93,559.56"/>
    </edge>
    <edge id=":71_2" function="internal">
        <lane id=":71_2_0" index="0" disallow="pedestrian tram rail_urban rail rail_electric rail_fast ship" speed="11.05" length="28.76" width="3.50" shape="472.35,558.81 473.26,562.15 474.07,564.24 475.08,566.22 476.35,568.04 477.03,568.82 477.80,569.55 478.62,570.22 479.49,570.80 480.42,571.30 481.39,571.71 482.41,572.05 483.42,572.29 485.63,572.56 487.85,572.56 490.09,572.32 493.51,571.61"/>
    </edge>
    <edge id=":71_3" function="internal">
        <lane id=":71_3_0" index="0" disallow="pedestrian tram rail_urban rail rail_electric rail_fast ship" speed="12.34" length="34.10" width="3.50" shape="472.35,558.81 472.97,562.56 473.15,565.14 473.08,567.74 472.70,570.35 471.97,572.89 471.44,574.16 470.82,575.37 470.09,576.52 469.28,577.60 468.35,578.62 466.37,580.37 464.17,581.83 461.84,583.00 459.44,583.93 457.01,584.65"/>
    </edge>
    <edge id=":71_4" function="internal">
        <lane id=":71_4_0" index="0" disallow="pedestrian tram rail_urban rail rail_electric rail_fast ship" speed="11.35" length="28.67" width="3.50" shape="456.12,581.27 458.24,580.64 460.29,579.85 462.26,578.85 464.10,577.63 465.75,576.17 466.48,575.35 467.14,574.46 467.73,573.53 468.23,572.55 468.66,571.53 469.26,569.41 469.57,567.23 469.63,565.02 469.47,562.82 468.93,559.56"/>
    </edge>
    <edge id=":71_5" function="internal">
        <lane id=":71_5_0" index="0" disallow="pedestrian tram rail_urban rail rail_electric rail_fast ship" speed="36.11" length="38.62" width="3.50" shape="456.12,581.27 474.80,576.44 493.51,571.61"/>
    </edge>
    <edge id=":72_0" function="internal">
        <lane id=":72_0_0" index="0" disallow="pedestrian tram rail_urban rail rail_electric rail_fast ship" speed="36.11" length="17.12" width="3.50" shape="437.03,615.46 429.59,617.42 420.44,619.69"/>
    </edge>
    <edge id=":72_1" function="internal">
        <lane id=":72_1_0" index="0" disallow="pedestrian tram rail_urban rail rail_electric rail_fast ship" speed="7.69" length="11.06" width="3.50" shape="437.03,615.46 436.98,615.27 435.19,614.84 433.70,613.95 432.55,612.85 431.66,611.66 430.94,610.43 430.34,609.19 429.81,607.89"/>
    </edge>
    <edge id=":72_2" function="internal">
        <lane id=":72_2_0" index="0" disallow="pedestrian tram rail_urban rail rail_electric rail_fast ship" speed="7.42" length="9.62" width="3.48" shape="433.07,606.62 433.46,607.59 433.85,608.45 434.29,609.29 434.81,610.09 435.42,610.81 436.15,611.41 437.03,611.75 439.92,611.52"/>
    </edge>
    <edge id=":72_3" function="internal">
        <lane id=":72_3_0" index="0" disallow="pedestrian tram rail_urban rail rail_electric rail_fast ship" speed="9.25" length="20.91" width="3.50" shape="433.08,606.62 433.52,608.14 433.67,609.61 433.51,611.09 433.01,612.48 432.21,613.74 431.19,614.82 430.03,615.76 428.78,616.56 426.10,617.86 423.30,618.88 420.44,619.69"/>
    </edge>
    <edge id=":72_4" function="internal">
        <lane id=":72_4_0" index="0" disallow="pedestrian tram rail_urban rail rail_electric rail_fast ship" speed="7.86" length="14.90" width="3.50" shape="419.57,616.30 421.95,615.64 424.24,614.84 426.41,613.84 427.37,613.28 428.25,612.65 429.01,611.95 429.58,611.21 429.94,610.45 430.11,609.68 430.07,608.85 429.81,607.89"/>
    </edge>
    <edge id=":72_5" function="internal">
        <lane id=":72_5_0" index="0" disallow="pedestrian tram rail_urban rail rail_electric rail_fast ship" speed="36.11" length="20.91" width="3.48" shape="419.57,616.30 428.76,614.02 439.92,611.52"/>
    </edge>
    <edge id=":73_0" function="internal">
        <lane id=":73_0_0" index="0" disallow="pedestrian tram rail_urban rail rail_electric rail_fast ship" speed="36.11" length="26.91" width="3.50" shape="457.66,685.14 455.72,677.27 454.63,670.23 453.57,663.19 452.61,658.73"/>
    </edge>
    <edge id=":73_1" function="internal">
        <lane id=":73_1_0" index="0" disallow="pedestrian tram rail_urban rail rail_electric rail_fast ship" speed="10.73" length="25.83" width="3.50" shape="461.06,684.29 460.05,679.61 460.49,678.45 461.22,677.46 462.12,676.61 464.15,675.19 467.45,673.49 472.04,671.64 477.93,669.72"/>
    </edge>
    <edge id=":73_2" function="internal">
        <lane id=":73_2_0" index="0" disallow="pedestrian tram rail_urban rail rail_electric rail_fast ship" speed="7.58" length="17.26" width="3.40" shape="478.93,673.07 473.75,674.73 469.72,676.24 466.85,677.56 465.10,678.58 464.37,679.11 463.79,679.67 463.58,679.99 463.49,680.21"/>
    </edge>
    <edge id=":73_3" function="internal">
        <lane id=":73_3_0" index="0" disallow="pedestrian tram rail_urban rail rail_electric rail_fast ship" speed="12.08" length="34.61" width="3.50" shape="478.93,673.07 476.45,673.73 473.91,674.21 471.30,674.46 468.64,674.44 466.01,674.05 464.65,673.70 463.36,673.23 462.10,672.64 460.91,671.94 459.78,671.13 458.74,670.23 457.79,669.26 456.90,668.19 455.44,665.98 454.26,663.62 453.33,661.19 452.61,658.73"/>
    </edge>
    <edge id=":73_4" function="internal">
        <lane id=":73_4_0" index="0" disallow="pedestrian tram rail_urban rail rail_electric rail_fast ship" speed="11.07" length="28.89" width="3.50" shape="455.99,657.85 456.62,659.98 457.41,662.05 458.41,664.04 459.64,665.89 460.35,666.75 461.13,667.54 461.97,668.26 462.87,668.91 463.84,669.47 464.84,669.93 465.89,670.31 466.96,670.59 469.16,670.91 471.38,670.92 473.60,670.70 475.78,670.29 477.93,669.72"/>
    </edge>
    <edge id=":73_5" function="internal">
        <lane id=":73_5_0" index="0" disallow="pedestrian tram rail_urban rail rail_electric rail_fast ship" speed="7.64" length="23.60" width="3.40" shape="455.99,657.85 457.44,662.71 462.32,676.05 463.49,680.21"/>
    </edge>
    <edge id=":74_0" function="internal">
        <lane id=":74_0_0" index="0" disallow="pedestrian tram rail_urban rail rail_electric rail_fast ship" speed="36.11" length="35.19" width="3.50" shape="571.68,651.03 567.54,651.03 561.33,651.30 555.14,651.90 549.00,652.84 542.93,654.11 536.94,655.72"/>
    </edge>
    <edge id=":74_1" function="internal">
        <lane id=":74_1_0" index="0" disallow="pedestrian tram rail_urban rail rail_electric rail_fast ship" speed="12.61" length="32.93" width="3.50" shape="571.68,651.03 568.00,650.77 565.52,650.35 563.08,649.69 560.70,648.75 558.45,647.49 556.38,645.92 554.57,644.06 553.06,641.96 551.84,639.70 550.92,637.35 550.23,634.92 549.61,631.31"/>
    </edge>
    <edge id=":74_2" function="internal">
        <lane id=":74_2_0" index="0" disallow="pedestrian tram rail_urban rail rail_electric rail_fast ship" speed="11.63" length="27.86" width="3.50" shape="553.08,630.90 553.63,634.04 554.21,636.10 554.99,638.10 556.01,639.99 557.27,641.73 558.76,643.27 560.47,644.56 562.35,645.60 564.34,646.39 566.41,646.95 568.53,647.31 571.74,647.53"/>
    </edge>
    <edge id=":74_3" function="internal">
        <lane id=":74_3_0" index="0" disallow="pedestrian tram rail_urban rail rail_electric rail_fast ship" speed="12.78" length="32.71" width="3.50" shape="553.08,630.90 553.32,634.53 553.24,637.03 552.92,639.52 552.32,641.99 551.41,644.38 550.17,646.64 548.62,648.71 546.82,650.53 544.81,652.09 542.66,653.40 540.39,654.48 536.94,655.72"/>
    </edge>
    <edge id=":74_4" function="internal">
        <lane id=":74_4_0" index="0" disallow="pedestrian tram rail_urban rail rail_electric rail_fast ship" speed="11.81" length="27.79" width="3.50" shape="535.93,652.37 538.95,651.29 540.88,650.36 542.71,649.25 544.40,647.94 545.91,646.42 547.19,644.70 548.21,642.82 548.97,640.82 549.47,638.74 549.74,636.62 549.81,634.48 549.61,631.31"/>
    </edge>
    <edge id=":74_5" function="internal">
        <lane id=":74_5_0" index="0" disallow="pedestrian tram rail_urban rail rail_electric rail_fast ship" speed="36.11" length="36.28" width="3.50" shape="535.93,652.37 542.11,650.71 548.37,649.39 554.70,648.43 561.08,647.81 567.47,647.53 571.74,647.53"/>
    </edge>
    <edge id=":75_0" function="internal">
        <lane id=":75_0_0" index="0" disallow="pedestrian tram rail_urban rail rail_electric rail_fast ship" speed="36.11" length="3.37" width="3.50" shape="468.88,718.50 468.87,718.25 468.86,718.02 468.85,717.82 468.84,717.63 468.82,717.46 468.81,717.31 468.80,717.16 468.78,717.02 468.76,716.89 468.74,716.76 468.72,716.62 468.70,716.48 468.67,716.34 468.64,716.18 468.61,716.02 468.58,715.83 468.54,715.63 468.50,715.41 468.46,715.16"/>
    </edge>
    <edge id=":75_1" function="internal">
        <lane id=":75_1_0" index="0" disallow="pedestrian tram rail_urban rail rail_electric rail_fast ship" speed="36.11" length="3.25" width="3.50" shape="465.62,718.91 465.01,715.72"/>
    </edge>

    <edge id="32823" from="65" to="72" priority="3" type="highway.residential" spreadType="center" length="18.88" shape="427.17,587.21 431.66,612.73">
        <lane id="32823_0" index="0" disallow="pedestrian tram rail_urban rail rail_electric rail_fast ship" speed="36.11" length="18.88" width="3.50" customShape="1" shape="427.58,588.65 430.35,598.43 432.65,605.48 433.01,606.47 433.06,606.59 433.10,606.70"/>
    </edge>
    <edge id="32927" from="66" to="65" priority="3" type="highway.residential" spreadType="center" length="68.51">
        <lane id="32927_0" index="0" disallow="pedestrian tram rail_urban rail rail_electric rail_fast ship" speed="36.11" length="68.51" width="3.50" customShape="1" shape="409.04,519.60 426.79,585.77"/>
    </edge>
    <edge id="32928" from="36" to="37" priority="3" type="highway.residential" spreadType="center" length="68.51">
        <lane id="32928_0" index="0" disallow="pedestrian tram rail_urban rail rail_electric rail_fast ship" speed="36.11" length="68.51" width="3.50" customShape="1" shape="423.41,586.69 405.66,520.52"/>
    </edge>
    <edge id="32990" from="69" to="73" priority="3" type="highway.residential" spreadType="center" length="33.56" shape="443.32,613.49 465.92,669.60">
        <lane id="32990_0" index="0" disallow="pedestrian tram rail_urban rail rail_electric rail_fast ship" speed="36.11" length="33.56" width="3.50" customShape="1" shape="447.69,625.36 451.85,641.61 456.00,657.87"/>
    </edge>
    <edge id="32991" from="73" to="69" priority="3" type="highway.residential" spreadType="center" length="33.55" shape="462.67,670.91 440.07,614.79">
        <lane id="32991_0" index="0" disallow="pedestrian tram rail_urban rail rail_electric rail_fast ship" speed="36.11" length="33.55" width="3.50" customShape="1" shape="452.61,658.73 448.45,642.48 444.30,626.23"/>
    </edge>
    <edge id="33043" from="35" to="71" priority="3" type="highway.residential" spreadType="center" length="39.36" shape="463.96,520.35 475.43,571.49">
        <lane id="33043_0" index="0" disallow="pedestrian tram rail_urban rail rail_electric rail_fast ship" speed="36.11" length="39.36" width="3.50" customShape="1" shape="463.96,520.35 468.15,539.58 472.35,558.81"/>
    </edge>
    <edge id="33044" from="71" to="13" priority="3" type="highway.residential" spreadType="center" length="39.37" shape="472.02,572.26 460.54,521.09">
        <lane id="33044_0" index="0" disallow="pedestrian tram rail_urban rail rail_electric rail_fast ship" speed="36.11" length="39.37" width="3.50" customShape="1" shape="468.93,559.56 464.73,540.33 460.54,521.09"/>
    </edge>
    <edge id="33046" from="72" to="69" priority="3" type="highway.residential" spreadType="center" length="0.19" shape="429.85,611.18 441.87,612.41">
        <lane id="33046_0" index="0" disallow="pedestrian tram rail_urban rail rail_electric rail_fast ship" speed="36.11" length="0.19" width="3.48" customShape="1" shape="439.92,611.52 440.11,611.50"/>
    </edge>
    <edge id="33047" from="69" to="72" priority="3" type="highway.residential" spreadType="center" length="0.20" shape="441.51,615.87 429.49,614.60">
        <lane id="33047_0" index="0" disallow="pedestrian tram rail_urban rail rail_electric rail_fast ship" speed="36.11" length="0.20" width="3.48" customShape="1" shape="437.23,615.42 437.03,615.46"/>
    </edge>
    <edge id="33049" from="39" to="72" priority="3" type="highway.residential" spreadType="center" length="70.02" shape="351.37,632.03 429.51,611.22">
        <lane id="33049_0" index="0" disallow="pedestrian tram rail_urban rail rail_electric rail_fast ship" speed="36.11" length="70.02" width="3.50" customShape="1" shape="351.37,632.03 369.64,628.25 391.25,623.38 419.59,616.30"/>
    </edge>
    <edge id="33050" from="72" to="33" priority="3" type="highway.residential" spreadType="center" length="70.00" shape="430.41,614.60 352.24,635.43">
        <lane id="33050_0" index="0" disallow="pedestrian tram rail_urban rail rail_electric rail_fast ship" speed="36.11" length="70.00" width="3.50" customShape="1" shape="420.44,619.69 392.05,626.79 370.37,631.67 352.24,635.43"/>
    </edge>