<routes>
	<vehicle depart="0.1" departLane="0" departPos="21.02742600690309" departSpeed="6.1947" id="315" type="bicycle">
		<route edges="126032"/>
	</vehicle>
	<vehicle depart="0.1" departLane="0" departPos="20.100202047907295" departSpeed="18.391523" id="328" type="bus">
		<route edges="126031 125293"/>
	</vehicle>
	<vehicle depart="0.1" departLane="0" departPos="23.16854594207672" departSpeed="0.013634104" id="32" type="passenger">
		<route edges=":12_1 126032"/>
	</vehicle>
	<vehicle depart="0.1" departLane="0" departPos="28.10892868462635" departSpeed="2.1635765" id="33" type="passenger">
		<route edges="126091 125293"/>
	</vehicle>
	<vehicle depart="0.1" departLane="0" departPos="20.687024037725127" departSpeed="1.0233735" id="35" type="passenger">
		<route edges="126091 125293"/>
	</vehicle>
	<vehicle depart="0.1" departLane="0" departPos="39.916956670411864" departSpeed="12.967045" id="317" type="passenger">
		<route edges=":12_4 126032"/>
	</vehicle>
	<vehicle depart="0.1" departLane="0" departPos="29.793282926198334" departSpeed="10.782683" id="320" type="passenger">
		<route edges=":12_4 126032"/>
	</vehicle>
	<vehicle depart="0.1" departLane="0" departPos="20.745909450308282" departSpeed="7.8105071" id="325" type="passenger">
		<route edges="125299 126032"/>
	</vehicle>
	<vehicle depart="0.1" departLane="0" departPos="10.745916733960845" departSpeed="2.9754429" id="327" type="passenger">
		<route edges="125299 126032"/>
	</vehicle>
</routes>
