<routes>
	<vehicle depart="0.1" departLane="0" departPos="57.48340546466473" departSpeed="0.32910759" id="36" type="passenger">
		<route edges="46677 46725"/>
	</vehicle>
	<vehicle depart="0.1" departLane="0" departPos="50.34254506340533" departSpeed="0.0" id="37" type="passenger">
		<route edges="46724 46676"/>
	</vehicle>
	<vehicle depart="0.1" departLane="0" departPos="45.7858848899605" departSpeed="0.29821548" id="39" type="passenger">
		<route edges="46677 46725"/>
	</vehicle>
	<vehicle depart="0.1" departLane="0" departPos="57.459908816442116" departSpeed="0.0" id="312" type="passenger">
		<route edges="46724 46676"/>
	</vehicle>
	<vehicle depart="0.1" departLane="0" departPos="14.921097873181177" departSpeed="6.9742087" id="344" type="passenger">
		<route edges=":37_9 46721 46718"/>
	</vehicle>
	<vehicle depart="0.1" departLane="0" departPos="69.36577719120618" departSpeed="4.431861" id="349" type="passenger">
		<route edges="46679 46725"/>
	</vehicle>
	<vehicle depart="0.1" departLane="0" departPos="50.71582182751591" departSpeed="4.6224783" id="359" type="passenger">
		<route edges="46679 46676"/>
	</vehicle>
	<vehicle depart="0.1" departLane="0" departPos="38.794597947938534" departSpeed="1.5109388" id="363" type="passenger">
		<route edges="46679 46676"/>
	</vehicle>
	<vehicle depart="0.1" departLane="0" departPos="17.328164941976524" departSpeed="2.5405314" id="366" type="passenger">
		<route edges="46679 46676"/>
	</vehicle>
	<vehicle depart="0.1" departLane="0" departPos="68.57688697064168" departSpeed="0.5853936" id="330" type="truck">
		<route edges="46677 46725"/>
	</vehicle>
</routes>
