<!-- generated on Tue Feb  9 22:14:10 2021 by Eclipse SUMO netconvert Version 1.8.0
<configuration xmlns:xsi="http://www.w3.org/2001/XMLSchema-instance" xsi:noNamespaceSchemaLocation="http://sumo.dlr.de/xsd/netconvertConfiguration.xsd">

    <input>
        <node-files value="./converted_scenarios/scenario-factory/ITA_Siderno-5_2_I-1-1/ITA_Siderno-5_2_I-1-1.nod.xml"/>
        <edge-files value="./converted_scenarios/scenario-factory/ITA_Siderno-5_2_I-1-1/ITA_Siderno-5_2_I-1-1.edg.xml"/>
        <connection-files value="./converted_scenarios/scenario-factory/ITA_Siderno-5_2_I-1-1/ITA_Siderno-5_2_I-1-1.con.xml"/>
        <tllogic-files value="./converted_scenarios/scenario-factory/ITA_Siderno-5_2_I-1-1/ITA_Siderno-5_2_I-1-1.tll.xml"/>
        <type-files value="/home/zen/commonroad-interactive-benchmarks/install/commonroad-map-tool/crmapconverter/sumo_map/templates/DEU.typ.xml"/>
    </input>

    <output>
        <output-file value="./converted_scenarios/scenario-factory/ITA_Siderno-5_2_I-1-1/ITA_Siderno-5_2_I-1-1.net.xml"/>
    </output>

    <processing>
        <geometry.remove.keep-edges.explicit value="true"/>
        <geometry.avoid-overlap value="true"/>
        <offset.disable-normalization value="true"/>
    </processing>

    <junctions>
        <no-turnarounds value="true"/>
        <junctions.internal-link-detail value="20"/>
    </junctions>

    <report>
        <aggregate-warnings value="5"/>
    </report>

    <random_number>
        <seed value="1234"/>
    </random_number>

</configuration>
--><net xmlns:xsi="http://www.w3.org/2001/XMLSchema-instance" version="1.6" junctionCornerDetail="5" junctionLinkDetail="20" limitTurnSpeed="5.50" xsi:noNamespaceSchemaLocation="http://sumo.dlr.de/xsd/net_file.xsd">

    <location netOffset="0.00,0.00" convBoundary="-40.10,-1036.21,150.88,-840.60" origBoundary="-40.10,-1036.21,150.88,-840.60" projParameter="!"/>

    <type id="highway.bridleway" priority="1" speed="2.78" allow="pedestrian" oneway="1" width="2.00"/>
    <type id="highway.bus_guideway" priority="1" speed="27.78" allow="bus" oneway="1"/>
    <type id="highway.cycleway" priority="1" speed="8.33" allow="bicycle" oneway="0" width="1.00"/>
    <type id="highway.footway" priority="1" speed="2.78" allow="pedestrian" oneway="1" width="2.00"/>
    <type id="highway.ford" priority="1" speed="2.78" allow="army" oneway="0"/>
    <type id="highway.living_street" priority="2" speed="2.78" disallow="tram rail_urban rail rail_electric rail_fast ship" oneway="0"/>
    <type id="highway.motorway" priority="14" speed="39.44" allow="private emergency authority army vip passenger hov taxi bus coach delivery truck trailer motorcycle evehicle custom1 custom2" oneway="1"/>
    <type id="highway.motorway_link" priority="9" speed="22.22" allow="private emergency authority army vip passenger hov taxi bus coach delivery truck trailer motorcycle evehicle custom1 custom2" oneway="1"/>
    <type id="highway.path" priority="1" speed="2.78" allow="pedestrian bicycle" oneway="0" width="2.00"/>
    <type id="highway.pedestrian" priority="1" speed="2.78" allow="pedestrian" oneway="1" width="2.00"/>
    <type id="highway.primary" priority="12" speed="27.78" disallow="pedestrian tram rail_urban rail rail_electric rail_fast ship" oneway="0"/>
    <type id="highway.primary_link" priority="7" speed="22.22" disallow="pedestrian tram rail_urban rail rail_electric rail_fast ship" oneway="0"/>
    <type id="highway.raceway" priority="15" speed="83.33" allow="vip" oneway="0"/>
    <type id="highway.residential" priority="3" speed="13.89" disallow="pedestrian tram rail_urban rail rail_electric rail_fast ship" oneway="0"/>
    <type id="highway.secondary" priority="11" speed="27.78" disallow="pedestrian tram rail_urban rail rail_electric rail_fast ship" oneway="0"/>
    <type id="highway.secondary_link" priority="6" speed="22.22" disallow="pedestrian tram rail_urban rail rail_electric rail_fast ship" oneway="0"/>
    <type id="highway.service" priority="1" speed="5.56" allow="pedestrian delivery bicycle" oneway="0"/>
    <type id="highway.stairs" priority="1" speed="1.39" allow="pedestrian" oneway="1" width="2.00"/>
    <type id="highway.step" priority="1" speed="1.39" allow="pedestrian" oneway="1" width="2.00"/>
    <type id="highway.steps" priority="1" speed="1.39" allow="pedestrian" oneway="1" width="2.00"/>
    <type id="highway.tertiary" priority="10" speed="22.22" disallow="pedestrian tram rail_urban rail rail_electric rail_fast ship" oneway="0"/>
    <type id="highway.tertiary_link" priority="5" speed="22.22" disallow="pedestrian tram rail_urban rail rail_electric rail_fast ship" oneway="0"/>
    <type id="highway.track" priority="1" speed="5.56" allow="pedestrian motorcycle moped bicycle" oneway="0"/>
    <type id="highway.trunk" priority="13" speed="27.78" disallow="pedestrian bicycle tram rail_urban rail rail_electric rail_fast ship" oneway="0"/>
    <type id="highway.trunk_link" priority="8" speed="22.22" disallow="pedestrian bicycle tram rail_urban rail rail_electric rail_fast ship" oneway="0"/>
    <type id="highway.unclassified" priority="4" speed="13.89" disallow="pedestrian tram rail_urban rail rail_electric rail_fast ship" oneway="0"/>
    <type id="highway.unsurfaced" priority="1" speed="8.33" disallow="tram rail_urban rail rail_electric rail_fast ship" oneway="0"/>
    <type id="railway.highspeed" priority="21" speed="69.44" allow="rail_fast" oneway="1"/>
    <type id="railway.light_rail" priority="19" speed="27.78" allow="rail_urban" oneway="1"/>
    <type id="railway.preserved" priority="16" speed="27.78" allow="rail" oneway="1"/>
    <type id="railway.rail" priority="20" speed="44.44" allow="rail" oneway="1"/>
    <type id="railway.subway" priority="18" speed="27.78" allow="rail_urban" oneway="1"/>
    <type id="railway.tram" priority="17" speed="13.89" allow="tram" oneway="1"/>

    <edge id=":37_0" function="internal">
        <lane id=":37_0_0" index="0" disallow="pedestrian tram rail_urban rail rail_electric rail_fast ship" speed="11.27" length="29.38" width="3.50" shape="97.34,-891.92 95.75,-893.55 94.07,-895.01 92.29,-896.28 90.40,-897.33 88.39,-898.10 87.40,-898.34 86.37,-898.52 85.34,-898.60 84.30,-898.60 83.25,-898.51 82.25,-898.34 80.16,-897.75 78.17,-896.88 76.26,-895.79 74.43,-894.52 71.82,-892.34"/>
    </edge>
    <edge id=":37_1" function="internal">
        <lane id=":37_1_0" index="0" disallow="pedestrian tram rail_urban rail rail_electric rail_fast ship" speed="36.11" length="39.90" width="3.50" shape="97.34,-891.92 92.40,-897.09 82.92,-906.41 68.72,-919.71"/>
    </edge>
    <edge id=":37_2" function="internal">
        <lane id=":37_2_0" index="0" disallow="pedestrian tram rail_urban rail rail_electric rail_fast ship" speed="12.34" length="34.35" width="3.50" shape="97.34,-891.92 94.80,-895.00 93.34,-897.20 92.11,-899.53 91.17,-902.00 90.84,-903.28 90.60,-904.57 90.47,-905.89 90.45,-907.21 90.54,-908.52 90.74,-909.83 91.05,-911.11 91.95,-913.59 93.17,-915.93 94.65,-918.12 96.32,-920.16 98.14,-922.08"/>
    </edge>
    <edge id=":37_3" function="internal">
        <lane id=":37_3_0" index="0" disallow="pedestrian tram rail_urban rail rail_electric rail_fast ship" speed="11.35" length="28.88" width="3.50" shape="100.59,-919.57 99.00,-917.91 97.56,-916.15 96.30,-914.28 95.27,-912.32 94.52,-910.24 94.28,-909.23 94.12,-908.17 94.04,-907.11 94.06,-906.04 94.17,-904.98 94.36,-903.92 94.62,-902.90 95.41,-900.82 96.45,-898.85 97.70,-896.97 99.92,-894.29"/>
    </edge>
    <edge id=":37_4" function="internal">
        <lane id=":37_4_0" index="0" disallow="pedestrian tram rail_urban rail rail_electric rail_fast ship" speed="36.11" length="39.61" width="3.50" shape="100.59,-919.57 87.83,-907.27 71.82,-892.34"/>
    </edge>
    <edge id=":37_5" function="internal">
        <lane id=":37_5_0" index="0" disallow="pedestrian tram rail_urban rail rail_electric rail_fast ship" speed="12.73" length="36.05" width="3.50" shape="100.59,-919.57 98.74,-917.88 96.75,-916.32 94.60,-914.92 92.30,-913.75 89.83,-912.86 87.25,-912.33 84.63,-912.18 83.24,-912.27 80.68,-912.72 78.19,-913.51 75.85,-914.58 73.64,-915.86 71.57,-917.32 68.72,-919.71"/>
    </edge>
    <edge id=":37_6" function="internal">
        <lane id=":37_6_0" index="0" disallow="pedestrian tram rail_urban rail rail_electric rail_fast ship" speed="11.77" length="30.66" width="3.50" shape="71.10,-922.28 73.60,-920.18 75.39,-918.92 77.28,-917.81 79.27,-916.90 81.36,-916.22 83.52,-915.84 84.61,-915.77 86.80,-915.88 88.94,-916.32 91.01,-917.06 92.96,-918.05 94.80,-919.24 96.53,-920.60 98.14,-922.08"/>
    </edge>
    <edge id=":37_7" function="internal">
        <lane id=":37_7_0" index="0" disallow="pedestrian tram rail_urban rail rail_electric rail_fast ship" speed="36.11" length="40.18" width="3.50" shape="71.10,-922.28 85.37,-908.91 94.92,-899.52 99.92,-894.29"/>
    </edge>
    <edge id=":37_8" function="internal">
        <lane id=":37_8_0" index="0" disallow="pedestrian tram rail_urban rail rail_electric rail_fast ship" speed="12.04" length="34.94" width="3.50" shape="71.10,-922.28 73.80,-919.55 75.46,-917.51 76.94,-915.30 78.15,-912.93 78.65,-911.62 79.03,-910.30 79.30,-908.93 79.44,-907.53 79.45,-906.13 79.31,-904.73 79.05,-903.36 78.66,-902.03 78.15,-900.72 76.91,-898.34 75.39,-896.15 73.67,-894.16 71.82,-892.34"/>
    </edge>
    <edge id=":37_9" function="internal">
        <lane id=":37_9_0" index="0" disallow="pedestrian tram rail_urban rail rail_electric rail_fast ship" speed="11.02" length="29.09" width="3.50" shape="69.42,-894.88 71.05,-896.48 72.50,-898.18 73.78,-900.01 74.81,-902.00 75.20,-903.04 75.51,-904.12 75.72,-905.21 75.82,-906.33 75.81,-907.45 75.69,-908.56 75.47,-909.65 75.16,-910.73 74.75,-911.77 73.73,-913.76 72.49,-915.61 71.07,-917.34 68.72,-919.71"/>
    </edge>
    <edge id=":37_10" function="internal">
        <lane id=":37_10_0" index="0" disallow="pedestrian tram rail_urban rail rail_electric rail_fast ship" speed="36.11" length="39.56" width="3.50" shape="69.42,-894.88 85.42,-909.81 98.14,-922.08"/>
    </edge>
    <edge id=":37_11" function="internal">
        <lane id=":37_11_0" index="0" disallow="pedestrian tram rail_urban rail rail_electric rail_fast ship" speed="12.26" length="35.01" width="3.50" shape="69.42,-894.88 72.43,-897.40 74.56,-898.88 76.81,-900.15 79.19,-901.18 81.68,-901.88 82.95,-902.09 84.24,-902.20 85.54,-902.20 86.83,-902.09 88.10,-901.87 89.36,-901.55 91.77,-900.61 94.03,-899.36 96.14,-897.85 98.09,-896.15 99.92,-894.29"/>
    </edge>
    <edge id=":38_0" function="internal">
        <lane id=":38_0_0" index="0" disallow="pedestrian tram rail_urban rail rail_electric rail_fast ship" speed="11.42" length="28.43" width="3.50" shape="40.25,-948.09 37.71,-950.37 35.93,-951.67 34.03,-952.78 32.05,-953.65 29.97,-954.22 28.95,-954.38 27.91,-954.46 26.85,-954.45 25.83,-954.36 23.71,-953.94 21.67,-953.22 19.71,-952.24 17.83,-951.07 15.14,-948.98"/>
    </edge>
    <edge id=":38_1" function="internal">
        <lane id=":38_1_0" index="0" disallow="pedestrian tram rail_urban rail rail_electric rail_fast ship" speed="36.11" length="40.19" width="3.50" shape="40.25,-948.09 34.55,-954.06 28.45,-961.04 21.97,-969.05 14.51,-978.91"/>
    </edge>
    <edge id=":38_2" function="internal">
        <lane id=":38_2_0" index="0" disallow="pedestrian tram rail_urban rail rail_electric rail_fast ship" speed="12.23" length="34.70" width="3.50" shape="40.25,-948.09 38.47,-950.01 36.87,-952.09 35.48,-954.37 34.41,-956.82 34.00,-958.16 33.71,-959.51 33.54,-960.88 33.49,-962.27 33.57,-963.65 33.78,-965.01 34.10,-966.38 35.01,-968.89 36.23,-971.25 37.68,-973.44 39.30,-975.48 41.94,-978.26"/>
    </edge>
    <edge id=":38_3" function="internal">
        <lane id=":38_3_0" index="0" disallow="pedestrian tram rail_urban rail rail_electric rail_fast ship" speed="11.18" length="29.05" width="3.50" shape="44.37,-975.75 42.06,-973.32 40.67,-971.57 39.43,-969.71 38.39,-967.74 37.62,-965.64 37.35,-964.56 37.18,-963.45 37.10,-962.34 37.13,-961.22 37.26,-960.11 37.48,-959.02 37.80,-957.95 38.68,-955.90 39.84,-953.98 41.20,-952.21 42.72,-950.56"/>
    </edge>
    <edge id=":38_4" function="internal">
        <lane id=":38_4_0" index="0" disallow="pedestrian tram rail_urban rail rail_electric rail_fast ship" speed="36.11" length="39.64" width="3.50" shape="44.37,-975.75 31.48,-963.58 19.08,-952.41 15.14,-948.98"/>
    </edge>
    <edge id=":38_5" function="internal">
        <lane id=":38_5_0" index="0" disallow="pedestrian tram rail_urban rail rail_electric rail_fast ship" speed="11.92" length="35.66" width="3.50" shape="44.37,-975.75 42.33,-973.91 40.16,-972.24 37.83,-970.79 35.33,-969.65 34.03,-969.22 32.69,-968.91 31.34,-968.73 29.96,-968.68 28.60,-968.78 27.25,-969.02 25.93,-969.39 24.65,-969.89 23.42,-970.50 21.12,-971.99 19.01,-973.75 17.10,-975.71 14.51,-978.91"/>
    </edge>
    <edge id=":38_6" function="internal">
        <lane id=":38_6_0" index="0" disallow="pedestrian tram rail_urban rail rail_electric rail_fast ship" speed="10.90" length="29.60" width="3.50" shape="17.30,-981.02 19.59,-978.18 21.22,-976.51 22.98,-975.03 24.91,-973.78 25.87,-973.30 26.89,-972.90 27.93,-972.60 28.98,-972.41 30.05,-972.33 31.12,-972.37 32.19,-972.51 33.25,-972.75 34.27,-973.08 36.36,-974.03 38.32,-975.25 40.18,-976.67 41.94,-978.26"/>
    </edge>
    <edge id=":38_7" function="internal">
        <lane id=":38_7_0" index="0" disallow="pedestrian tram rail_urban rail rail_electric rail_fast ship" speed="36.11" length="39.72" width="3.50" shape="17.30,-981.03 24.71,-971.23 31.11,-963.32 37.12,-956.44 42.72,-950.56"/>
    </edge>
    <edge id=":38_8" function="internal">
        <lane id=":38_8_0" index="0" disallow="pedestrian tram rail_urban rail rail_electric rail_fast ship" speed="12.82" length="36.12" width="3.50" shape="17.30,-981.03 19.42,-977.87 21.20,-974.56 22.17,-972.19 22.92,-969.72 23.37,-967.15 23.49,-964.53 23.22,-961.90 22.56,-959.33 21.55,-956.91 20.25,-954.66 18.71,-952.59 17.00,-950.71 15.14,-948.98"/>
    </edge>
    <edge id=":38_9" function="internal">
        <lane id=":38_9_0" index="0" disallow="pedestrian tram rail_urban rail rail_electric rail_fast ship" speed="11.86" length="30.79" width="3.50" shape="12.85,-951.62 14.47,-953.13 15.94,-954.76 17.25,-956.52 18.35,-958.43 19.18,-960.46 19.71,-962.60 19.92,-964.78 19.80,-966.98 19.41,-969.14 18.76,-971.24 17.92,-973.27 16.35,-976.17 14.51,-978.91"/>
    </edge>
    <edge id=":38_10" function="internal">
        <lane id=":38_10_0" index="0" disallow="pedestrian tram rail_urban rail rail_electric rail_fast ship" speed="36.11" length="39.45" width="3.50" shape="12.85,-951.62 16.76,-955.03 29.11,-966.15 41.94,-978.26"/>
    </edge>
    <edge id=":38_11" function="internal">
        <lane id=":38_11_0" index="0" disallow="pedestrian tram rail_urban rail rail_electric rail_fast ship" speed="12.45" length="33.75" width="3.50" shape="12.85,-951.62 15.93,-954.02 18.13,-955.39 20.46,-956.54 22.90,-957.40 25.44,-957.92 26.74,-958.03 28.03,-958.04 29.33,-957.94 30.61,-957.74 33.11,-957.05 35.49,-956.01 37.72,-954.70 39.82,-953.17 42.72,-950.56"/>
    </edge>
    <edge id=":39_0" function="internal">
        <lane id=":39_0_0" index="0" disallow="pedestrian tram rail_urban rail rail_electric rail_fast ship" speed="36.11" length="36.42" width="3.50" shape="66.14,-922.13 56.48,-931.64 40.42,-947.92"/>
    </edge>
    <edge id=":39_1" function="internal">
        <lane id=":39_1_0" index="0" disallow="pedestrian tram rail_urban rail rail_electric rail_fast ship" speed="9.57" length="20.49" width="3.50" shape="66.14,-922.13 64.14,-924.25 62.42,-926.55 61.29,-928.56 60.45,-930.71 59.96,-932.95 59.84,-935.25 60.08,-937.54 60.65,-939.77 60.99,-940.59"/>
    </edge>
    <edge id=":39_2" function="internal">
        <lane id=":39_2_0" index="0" disallow="pedestrian tram rail_urban rail rail_electric rail_fast ship" speed="8.45" length="16.36" width="3.50" shape="42.89,-950.40 45.54,-948.00 47.97,-946.27 50.07,-945.13 52.30,-944.31 54.05,-943.95 55.84,-943.85 57.29,-944.00"/>
    </edge>
    <edge id=":39_3" function="internal">
        <lane id=":39_3_0" index="0" disallow="pedestrian tram rail_urban rail rail_electric rail_fast ship" speed="36.11" length="36.32" width="3.50" shape="42.89,-950.40 58.94,-934.13 68.54,-924.69"/>
    </edge>
    <edge id=":39_4" function="internal">
        <lane id=":39_4_0" index="0" disallow="pedestrian tram rail_urban rail rail_electric rail_fast ship" speed="8.86" length="17.52" width="3.50" shape="46.97,-932.43 47.14,-933.47 47.19,-935.23 46.99,-936.98 46.37,-939.25 45.41,-941.40 43.86,-943.90 42.03,-946.20 40.42,-947.92"/>
    </edge>
    <edge id=":39_5" function="internal">
        <lane id=":39_5_0" index="0" disallow="pedestrian tram rail_urban rail rail_electric rail_fast ship" speed="36.11" length="15.60" width="3.50" shape="48.80,-930.61 54.34,-936.29 59.57,-941.90"/>
    </edge>
    <edge id=":39_6" function="internal">
        <lane id=":39_6_0" index="0" disallow="pedestrian tram rail_urban rail rail_electric rail_fast ship" speed="9.59" length="20.28" width="3.50" shape="50.11,-929.30 51.18,-929.76 53.42,-930.36 55.72,-930.60 58.03,-930.45 60.29,-929.92 62.44,-929.06 64.46,-927.93 66.80,-926.23 68.54,-924.69"/>
    </edge>

    <edge id="46127" from="38" to="19" priority="3" type="highway.residential" spreadType="center" length="70.00" shape="29.82,-962.86 -37.81,-903.19">
        <lane id="46127_0" index="0" disallow="pedestrian tram rail_urban rail rail_electric rail_fast ship" speed="36.11" length="70.00" width="3.50" customShape="1" shape="15.14,-948.98 -17.43,-920.81 -37.81,-903.19"/>
    </edge>
    <edge id="46128" from="33" to="38" priority="3" type="highway.residential" spreadType="center" length="70.00" shape="-40.10,-905.85 27.51,-965.48">
        <lane id="46128_0" index="0" disallow="pedestrian tram rail_urban rail rail_electric rail_fast ship" speed="36.11" length="70.00" width="3.50" customShape="1" shape="-40.10,-905.85 -19.72,-923.46 12.86,-951.63"/>
    </edge>
    <edge id="46130" from="31" to="38" priority="3" type="highway.residential" spreadType="center" length="70.00" shape="94.75,-1024.35 29.82,-962.85">
        <lane id="46130_0" index="0" disallow="pedestrian tram rail_urban rail rail_electric rail_fast ship" speed="36.11" length="70.00" width="3.50" customShape="1" shape="94.75,-1024.35 84.34,-1014.31 44.37,-975.75"/>
    </edge>
    <edge id="46131" from="38" to="21" priority="3" type="highway.residential" spreadType="center" length="70.01" shape="27.41,-965.39 92.32,-1026.87">
        <lane id="46131_0" index="0" disallow="pedestrian tram rail_urban rail rail_electric rail_fast ship" speed="36.11" length="70.01" width="3.50" customShape="1" shape="41.94,-978.26 81.91,-1016.83 92.32,-1026.87"/>
    </edge>
    <edge id="46676" from="37" to="26" priority="3" type="highway.residential" spreadType="center" length="70.00" shape="83.40,-908.38 148.43,-970.77">
        <lane id="46676_0" index="0" disallow="pedestrian tram rail_urban rail rail_electric rail_fast ship" speed="36.11" length="70.00" width="3.50" customShape="1" shape="98.14,-922.08 137.08,-959.78 148.43,-970.77"/>
    </edge>
    <edge id="46677" from="34" to="37" priority="3" type="highway.residential" spreadType="center" length="70.01" shape="150.88,-968.26 85.82,-905.85">
        <lane id="46677_0" index="0" disallow="pedestrian tram rail_urban rail rail_electric rail_fast ship" speed="36.11" length="70.01" width="3.50" customShape="1" shape="150.88,-968.26 139.52,-957.26 100.58,-919.56"/>
    </edge>
    <edge id="46679" from="32" to="37" priority="3" type="highway.residential" spreadType="center" length="70.00" shape="22.37,-843.20 83.38,-908.36">
        <lane id="46679_0" index="0" disallow="pedestrian tram rail_urban rail rail_electric rail_fast ship" speed="36.11" length="70.00" width="3.50" customShape="1" shape="22.37,-843.20 23.46,-844.52 35.74,-859.31 45.70,-870.76 54.60,-880.45 60.99,-886.93 69.45,-894.91"/>
    </edge>
    <edge id="46680" from="37" to="27" priority="3" type="highway.residential" spreadType="center" length="70.00" shape="85.94,-905.97 24.77,-840.60">
        <lane id="46680_0" index="0" disallow="pedestrian tram rail_urban rail rail_electric rail_fast ship" speed="36.11" length="70.00" width="3.50" customShape="1" shape="71.82,-892.34 63.42,-884.41 57.09,-877.99 48.26,-868.38 38.36,-856.99 26.13,-842.27 24.77,-840.60"/>
    </edge>
    <edge id="46715" from="38" to="24" priority="3" type="highway.residential" spreadType="center" length="70.00" shape="27.28,-963.04 -28.50,-1034.13">
        <lane id="46715_0" index="0" disallow="pedestrian tram rail_urban rail rail_electric rail_fast ship" speed="36.11" length="70.00" width="3.50" customShape="1" shape="14.51,-978.91 6.29,-989.75 -8.50,-1008.27 -18.53,-1020.90 -28.50,-1034.13"/>
    </edge>
    <edge id="46716" from="35" to="38" priority="3" type="highway.residential" spreadType="center" length="70.01" shape="-25.69,-1036.21 30.04,-965.20">
        <lane id="46716_0" index="0" disallow="pedestrian tram rail_urban rail rail_electric rail_fast ship" speed="36.11" length="70.01" width="3.50" customShape="1" shape="-25.69,-1036.21 -15.76,-1023.05 -5.74,-1010.42 9.07,-991.87 17.33,-980.99"/>
    </edge>
    <edge id="46718" from="39" to="38" priority="3" type="highway.residential" spreadType="center" length="0.25" shape="53.22,-935.15 27.36,-962.95">
        <lane id="46718_0" index="0" disallow="pedestrian tram rail_urban rail rail_electric rail_fast ship" speed="36.11" length="0.25" width="3.50" customShape="1" shape="40.42,-947.92 40.33,-948.01 40.24,-948.09"/>
    </edge>
    <edge id="46719" from="38" to="39" priority="3" type="highway.residential" spreadType="center" length="0.24" shape="29.92,-965.34 55.78,-937.53">
        <lane id="46719_0" index="0" disallow="pedestrian tram rail_urban rail rail_electric rail_fast ship" speed="36.11" length="0.24" width="3.50" customShape="1" shape="42.72,-950.56 42.80,-950.48 42.89,-950.39"/>
    </edge>
    <edge id="46721" from="37" to="39" priority="3" type="highway.residential" spreadType="center" length="3.57" shape="83.42,-905.88 53.18,-935.19">
        <lane id="46721_0" index="0" disallow="pedestrian tram rail_urban rail rail_electric rail_fast ship" speed="36.11" length="3.57" width="3.50" customShape="1" shape="68.72,-919.71 67.41,-920.94 66.12,-922.16"/>
    </edge>
    <edge id="46722" from="39" to="37" priority="3" type="highway.residential" spreadType="center" length="3.54" shape="55.61,-937.70 85.85,-908.39">
        <lane id="46722_0" index="0" disallow="pedestrian tram rail_urban rail rail_electric rail_fast ship" speed="36.11" length="3.54" width="3.50" customShape="1" shape="68.54,-924.69 69.81,-923.49 71.12,-922.27"/>
    </edge>
    <edge id="46724" from="36" to="37" priority="3" type="highway.residential" spreadType="center" length="57.34" shape="136.10,-849.67 83.33,-905.97">
        <lane id="46724_0" index="0" disallow="pedestrian tram rail_urban rail rail_electric rail_fast ship" speed="36.11" length="57.34" width="3.50" customShape="1" shape="136.10,-849.67 116.71,-870.80 97.34,-891.92"/>
    </edge>
    <edge id="46725" from="37" to="25" priority="3" type="highway.residential" spreadType="center" length="57.33" shape="85.89,-908.36 138.67,-852.04">
        <lane id="46725_0" index="0" disallow="pedestrian tram rail_urban rail rail_electric rail_fast ship" speed="36.11" length="57.33" width="3.50" customShape="1" shape="99.92,-894.29 119.29,-873.17 138.67,-852.04"/>
    </edge>
    <edge id="46815" from="14" to="39" priority="3" type="highway.residential" spreadType="center" length="80.19">
        <lane id="46815_0" index="0" disallow="pedestrian tram rail_urban rail rail_electric rail_fast ship" speed="36.11" length="80.19" width="3.50" customShape="1" shape="-7.69,-873.68 10.25,-891.71 48.87,-930.53"/>
    </edge>
    <edge id="46817" from="39" to="3" priority="3" type="highway.residential" spreadType="center" length="80.97">
        <lane id="46817_0" index="0" disallow="pedestrian tram rail_urban rail rail_electric rail_fast ship" speed="36.11" length="80.97" width="3.50" customShape="1" shape="59.62,-941.85 85.44,-969.89 90.60,-975.38 115.05,-1000.87"/>
    </edge>

    <junction id="14" type="dead_end" x="-7.69" y="-873.68" incLanes="" intLanes="" shape="-6.45,-872.44 -8.93,-874.91" rightOfWay="edgePriority"/>
    <junction id="19" type="dead_end" x="-37.81" y="-903.19" incLanes="46127_0" intLanes="" shape="-36.67,-901.87 -38.96,-904.52" rightOfWay="edgePriority"/>
    <junction id="21" type="dead_end" x="92.32" y="-1026.87" incLanes="46131_0" intLanes="" shape="91.10,-1028.12 93.53,-1025.61" rightOfWay="edgePriority"/>
    <junction id="24" type="dead_end" x="-28.50" y="-1034.13" incLanes="46715_0" intLanes="" shape="-29.90,-1033.08 -27.10,-1035.18" rightOfWay="edgePriority"/>
    <junction id="25" type="dead_end" x="138.67" y="-852.04" incLanes="46725_0" intLanes="" shape="139.96,-853.22 137.38,-850.86" rightOfWay="edgePriority"/>
    <junction id="26" type="dead_end" x="148.43" y="-970.77" incLanes="46676_0" intLanes="" shape="147.22,-972.03 149.65,-969.51" rightOfWay="edgePriority"/>
    <junction id="27" type="dead_end" x="24.77" y="-840.60" incLanes="46680_0" intLanes="" shape="26.13,-839.49 23.42,-841.71" rightOfWay="edgePriority"/>
    <junction id="3" type="dead_end" x="115.05" y="-1000.87" incLanes="46817_0" intLanes="" shape="113.79,-1002.08 116.31,-999.66" rightOfWay="edgePriority"/>
    <junction id="31" type="dead_end" x="94.75" y="-1024.35" incLanes="" intLanes="" shape="93.53,-1025.60 95.96,-1023.09" rightOfWay="edgePriority"/>
    <junction id="32" type="dead_end" x="22.37" y="-843.20" incLanes="" intLanes="" shape="23.73,-842.09 21.02,-844.31" rightOfWay="edgePriority"/>
    <junction id="33" type="dead_end" x="-40.10" y="-905.85" incLanes="" intLanes="" shape="-38.95,-904.52 -41.24,-907.17" rightOfWay="edgePriority"/>
    <junction id="34" type="dead_end" x="150.88" y="-968.26" incLanes="" intLanes="" shape="149.66,-969.52 152.09,-967.01" rightOfWay="edgePriority"/>
    <junction id="35" type="dead_end" x="-25.69" y="-1036.21" incLanes="" intLanes="" shape="-27.08,-1035.16 -24.29,-1037.26" rightOfWay="edgePriority"/>
    <junction id="36" type="dead_end" x="136.10" y="-849.67" incLanes="" intLanes="" shape="137.39,-850.85 134.81,-848.48" rightOfWay="edgePriority"/>
    <junction id="37" type="priority" x="84.64" y="-907.14" incLanes="46724_0 46677_0 46722_0 46679_0" intLanes=":37_0_0 :37_1_0 :37_2_0 :37_3_0 :37_4_0 :37_5_0 :37_6_0 :37_7_0 :37_8_0 :37_9_0 :37_10_0 :37_11_0" shape="96.05,-890.74 101.21,-895.47 98.22,-899.38 96.46,-903.25 95.95,-907.07 96.66,-910.86 98.61,-914.60 101.79,-918.30 96.93,-923.33 92.91,-920.11 88.86,-918.19 84.77,-917.57 80.65,-918.26 76.50,-920.25 72.31,-923.54 67.53,-918.44 70.94,-914.64 73.03,-910.88 73.80,-907.15 73.26,-903.45 71.40,-899.79 68.22,-896.15 73.02,-891.06 77.05,-894.25 81.00,-896.13 84.87,-896.73 88.67,-896.03 92.40,-894.03">
        <request index="0" response="000000000000" foes="000100010000" cont="0"/>
        <request index="1" response="000000000000" foes="111100110000" cont="0"/>
        <request index="2" response="000011000000" foes="110011110000" cont="0"/>
        <request index="3" response="000010000000" foes="100010000000" cont="0"/>
        <request index="4" response="000110000111" foes="100110000111" cont="0"/>
        <request index="5" response="011110000110" foes="011110000110" cont="0"/>
        <request index="6" response="000000000000" foes="010000000100" cont="0"/>
        <request index="7" response="000000000000" foes="110000111100" cont="0"/>
        <request index="8" response="000000000011" foes="110000110011" cont="0"/>
        <request index="9" response="000000000010" foes="000000100010" cont="0"/>
        <request index="10" response="000111000110" foes="000111100110" cont="0"/>
        <request index="11" response="000110011110" foes="000110011110" cont="0"/>
    </junction>
    <junction id="38" type="priority" x="28.64" y="-964.15" incLanes="46718_0 46130_0 46716_0 46128_0" intLanes=":38_0_0 :38_1_0 :38_2_0 :38_3_0 :38_4_0 :38_5_0 :38_6_0 :38_7_0 :38_8_0 :38_9_0 :38_10_0 :38_11_0" shape="39.01,-946.85 43.96,-951.80 41.01,-955.41 39.35,-959.09 38.98,-962.84 39.90,-966.65 42.10,-970.54 45.58,-974.49 40.73,-979.52 36.89,-976.49 33.12,-974.83 29.42,-974.57 25.78,-975.69 22.20,-978.19 18.69,-982.08 13.12,-977.85 16.09,-973.19 17.78,-968.73 18.19,-964.47 17.32,-960.43 15.15,-956.58 11.71,-952.95 16.29,-947.65 20.21,-950.48 24.08,-952.12 27.89,-952.57 31.65,-951.85 35.36,-949.94">
        <request index="0" response="000000010000" foes="000100010000" cont="0"/>
        <request index="1" response="111000110000" foes="111100110000" cont="0"/>
        <request index="2" response="110011110000" foes="110011110000" cont="0"/>
        <request index="3" response="000000000000" foes="100010000000" cont="0"/>
        <request index="4" response="000000000000" foes="100110000111" cont="0"/>
        <request index="5" response="011000000000" foes="011110000110" cont="0"/>
        <request index="6" response="010000000000" foes="010000000100" cont="0"/>
        <request index="7" response="110000111000" foes="110000111100" cont="0"/>
        <request index="8" response="110000110011" foes="110000110011" cont="0"/>
        <request index="9" response="000000000000" foes="000000100010" cont="0"/>
        <request index="10" response="000000000000" foes="000111100110" cont="0"/>
        <request index="11" response="000000011000" foes="000110011110" cont="0"/>
    </junction>