<!-- generated on 2020-12-18 16:00:07.938598 by ipykernel_launcher.py v1_2_0+5214-53edc58fcd
-->
<edges>
	<edge from="1" function="normal" id="3431" length="7.746632106922337" numLanes="5" priority="1" speed="36.11111111111111" spreadType="center" to="2">
		<lane allow="moped bicycle pedestrian custom1 trailer evehicle rail_urban ship private truck vip custom2 authority delivery rail_electric taxi tram army hov coach motorcycle passenger bus rail emergency" index="0" length="7.746632106922337" shape="18.855449999999998,43.750699999999995 15.31335,36.7402" speed="36.11111111111111" width="2.841755522559954"/>
		<lane allow="moped bicycle pedestrian custom1 trailer evehicle rail_urban ship private truck vip custom2 authority delivery rail_electric taxi tram army hov coach motorcycle passenger bus rail emergency" index="1" length="7.746632106922337" shape="21.4827,42.402 17.99985,35.394099999999995" speed="36.11111111111111" width="3.064659380746906"/>
		<lane allow="moped bicycle pedestrian custom1 trailer evehicle rail_urban ship private truck vip custom2 authority delivery rail_electric taxi tram army hov coach motorcycle passenger bus rail emergency" index="2" length="7.746632106922337" shape="24.19375,41.01025 20.7461,34.0356" speed="36.11111111111111" width="3.0301778330652454"/>
		<lane allow="moped bicycle pedestrian custom1 trailer evehicle rail_urban ship private truck vip custom2 authority delivery rail_electric taxi tram army hov coach motorcycle passenger bus rail emergency" index="3" length="7.746632106922337" shape="26.912,39.6148 23.4806,32.6696" speed="36.11111111111111" width="3.0528378404363385"/>
		<lane allow="moped bicycle pedestrian custom1 trailer evehicle rail_urban ship private truck vip custom2 authority delivery rail_electric taxi tram army hov coach motorcycle passenger bus rail emergency" index="4" length="7.746632106922337" shape="29.6373,38.21575 26.20635,31.226799999999997" speed="36.11111111111111" width="3.0460097258544647"/>
	</edge>
	<edge from="2" function="normal" id="3438" length="8.438893355322127" numLanes="6" priority="1" speed="36.11111111111111" spreadType="center" to="3">
		<lane allow="moped bicycle pedestrian custom1 trailer evehicle rail_urban ship private truck vip custom2 authority delivery rail_electric taxi tram army hov coach motorcycle passenger bus rail emergency" index="0" length="8.438893355322127" shape="15.31335,36.7402 8.6385,30.46345" speed="36.11111111111111" width="2.943512814648509"/>
		<lane allow="moped bicycle pedestrian custom1 trailer evehicle rail_urban ship private truck vip custom2 authority delivery rail_electric taxi tram army hov coach motorcycle passenger bus rail emergency" index="1" length="8.438893355322127" shape="15.31335,36.7402 11.479800000000001,29.13055" speed="36.11111111111111" width="2.943512814648509"/>
		<lane allow="moped bicycle pedestrian custom1 trailer evehicle rail_urban ship private truck vip custom2 authority delivery rail_electric taxi tram army hov coach motorcycle passenger bus rail emergency" index="2" length="8.438893355322127" shape="17.99985,35.394099999999995 14.228349999999999,27.799" speed="36.11111111111111" width="3.054615309658486"/>
		<lane allow="moped bicycle pedestrian custom1 trailer evehicle rail_urban ship private truck vip custom2 authority delivery rail_electric taxi tram army hov coach motorcycle passenger bus rail emergency" index="3" length="8.438893355322127" shape="20.7461,34.0356 16.959400000000002,26.45615" speed="36.11111111111111" width="3.0324580145485935"/>
		<lane allow="moped bicycle pedestrian custom1 trailer evehicle rail_urban ship private truck vip custom2 authority delivery rail_electric taxi tram army hov coach motorcycle passenger bus rail emergency" index="4" length="8.438893355322127" shape="23.4806,32.6696 19.6783,25.07495" speed="36.11111111111111" width="3.0528378404363385"/>
		<lane allow="moped bicycle pedestrian custom1 trailer evehicle rail_urban ship private truck vip custom2 authority delivery rail_electric taxi tram army hov coach motorcycle passenger bus rail emergency" index="5" length="8.438893355322127" shape="26.20635,31.226799999999997 22.4662,23.662" speed="36.11111111111111" width="3.115279160845783"/>
	</edge>
	<edge from="3" function="normal" id="3450" length="24.49487124148037" numLanes="6" priority="1" speed="36.11111111111111" spreadType="center" to="4">
		<lane allow="moped bicycle pedestrian custom1 trailer evehicle rail_urban ship private truck vip custom2 authority delivery rail_electric taxi tram army hov coach motorcycle passenger bus rail emergency" index="0" length="24.49487124148037" shape="8.6385,30.46345 5.4738,24.2294 1.6855,16.54225 -2.4002,8.59765" speed="36.11111111111111" width="3.2241062653082646"/>
		<lane allow="moped bicycle pedestrian custom1 trailer evehicle rail_urban ship private truck vip custom2 authority delivery rail_electric taxi tram army hov coach motorcycle passenger bus rail emergency" index="1" length="24.49487124148037" shape="11.479800000000001,29.13055 8.4723,23.07895 4.64935,15.130700000000001 0.5454999999999999,6.99395" speed="36.11111111111111" width="2.8665619215359714"/>
		<lane allow="moped bicycle pedestrian custom1 trailer evehicle rail_urban ship private truck vip custom2 authority delivery rail_electric taxi tram army hov coach motorcycle passenger bus rail emergency" index="2" length="24.49487124148037" shape="14.228349999999999,27.799 11.20535,21.747549999999997 7.3515500000000005,13.79975 3.1879999999999997,5.6754" speed="36.11111111111111" width="3.004221073756059"/>
		<lane allow="moped bicycle pedestrian custom1 trailer evehicle rail_urban ship private truck vip custom2 authority delivery rail_electric taxi tram army hov coach motorcycle passenger bus rail emergency" index="3" length="24.49487124148037" shape="16.959400000000002,26.45615 13.873000000000001,20.2979 9.9883,12.3505 5.97265,4.301" speed="36.11111111111111" width="3.0189875720181423"/>
		<lane allow="moped bicycle pedestrian custom1 trailer evehicle rail_urban ship private truck vip custom2 authority delivery rail_electric taxi tram army hov coach motorcycle passenger bus rail emergency" index="4" length="24.49487124148037" shape="19.6783,25.07495 16.55985,18.840249999999997 12.67515,10.89285 8.73575,2.9077" speed="36.11111111111111" width="3.0183955092068366"/>
		<lane allow="moped bicycle pedestrian custom1 trailer evehicle rail_urban ship private truck vip custom2 authority delivery rail_electric taxi tram army hov coach motorcycle passenger bus rail emergency" index="5" length="24.49487124148037" shape="22.4662,23.662 19.25375,17.33635 15.36905,9.388950000000001 11.43155,1.53455" speed="36.11111111111111" width="3.0323687935341908"/>
	</edge>
	<edge from="4" function="normal" id="3664" length="45.62159337177896" numLanes="2" priority="1" speed="36.11111111111111" spreadType="center" to="5">
		<lane allow="moped bicycle pedestrian custom1 trailer evehicle rail_urban ship private vip custom2 authority delivery rail_electric taxi tram army hov coach motorcycle passenger rail emergency" index="0" length="45.62159337177896" shape="8.73575,2.9077 4.977399999999999,-4.4737 2.842,-8.88165 1.7771000000000001,-11.41355 1.30365,-13.461400000000001 1.17585,-15.826799999999999 1.6173,-18.613500000000002 2.3524,-21.1797 3.41885,-23.11845 4.8317,-25.264850000000003 7.95195,-28.2398 13.99655,-31.722499999999997 23.009300000000003,-36.437200000000004" speed="36.11111111111111" width="2.9349357471672186"/>
		<lane allow="moped bicycle pedestrian custom1 trailer evehicle rail_urban ship private vip custom2 authority delivery rail_electric taxi tram army hov coach motorcycle passenger rail emergency" index="1" length="45.62159337177896" shape="11.43155,1.53455 8.08015,-5.24165 6.47225,-9.28705 5.80845,-11.6783 5.5321,-13.45965 5.3641000000000005,-15.49245 5.59335,-17.6002 6.2416,-19.36605 7.20795,-20.9471 8.533949999999999,-22.56635 11.0068,-25.13475 16.2714,-28.893099999999997 24.55415,-33.3456" speed="36.11111111111111" width="3.0323687935341908"/>
	</edge>
	<edge from="5" function="normal" id="3495" length="15.184501575044738" numLanes="3" priority="1" speed="36.11111111111111" spreadType="center" to="6">
		<lane allow="moped bicycle pedestrian custom1 trailer evehicle rail_urban ship private truck vip custom2 authority delivery rail_electric taxi tram army hov coach motorcycle passenger bus rail emergency" index="0" length="15.184501575044738" shape="21.38625,-39.765299999999996 30.11355,-44.06035 35.02135,-46.47565" speed="36.11111111111111" width="3.8765859644795713"/>
		<lane allow="moped bicycle pedestrian custom1 trailer evehicle rail_urban ship private truck vip custom2 authority delivery rail_electric taxi tram army hov coach motorcycle passenger bus rail emergency" index="1" length="15.184501575044738" shape="23.009300000000003,-36.437200000000004 31.73645,-40.73075 36.65505,-43.150549999999996" speed="36.11111111111111" width="3.511789538113012"/>
		<lane allow="moped bicycle pedestrian custom1 trailer evehicle rail_urban ship private truck vip custom2 authority delivery rail_electric taxi tram army hov coach motorcycle passenger bus rail emergency" index="2" length="15.184501575044738" shape="24.55415,-33.3456 33.23295,-37.6142 38.17975,-40.047250000000005" speed="36.11111111111111" width="3.382313814535842"/>
	</edge>
	<edge from="4" function="normal" id="3610" length="13.553882434287969" numLanes="3" priority="1" speed="36.11111111111111" spreadType="center" to="7">
		<lane allow="moped bicycle pedestrian custom1 trailer evehicle rail_urban ship private truck vip custom2 authority delivery rail_electric taxi tram army hov coach motorcycle passenger bus rail emergency" index="0" length="13.553882434287969" shape="0.5454999999999999,6.99395 -5.4912,-5.1819500000000005" speed="36.11111111111111" width="2.8665619215359714"/>
		<lane allow="moped bicycle pedestrian custom1 trailer evehicle rail_urban ship private truck vip custom2 authority delivery rail_electric taxi tram army hov coach motorcycle passenger bus rail emergency" index="1" length="13.553882434287969" shape="3.1879999999999997,5.6754 -2.76225,-6.5158000000000005" speed="36.11111111111111" width="3.0173836033888697"/>
		<lane allow="moped bicycle pedestrian custom1 trailer evehicle rail_urban ship private truck vip custom2 authority delivery rail_electric taxi tram army hov coach motorcycle passenger bus rail emergency" index="2" length="13.553882434287969" shape="5.97265,4.301 -0.006149999999999989,-7.86295" speed="36.11111111111111" width="3.1180545505170367"/>
	</edge>
	<edge from="7" function="normal" id="3646" length="16.509632755735122" numLanes="3" priority="1" speed="36.11111111111111" spreadType="center" to="8">
		<lane allow="moped bicycle pedestrian custom1 trailer evehicle rail_urban ship private truck vip custom2 authority delivery rail_electric taxi tram army hov coach motorcycle passenger bus rail emergency" index="0" length="16.509632755735122" shape="-5.4912,-5.1819500000000005 -6.9252,-8.074349999999999 -8.55845,-11.3689 -9.96355,-14.2028 -11.34895,-16.9972 -12.82455,-19.9735" speed="36.11111111111111" width="3.0575892938718896"/>
		<lane allow="moped bicycle pedestrian custom1 trailer evehicle rail_urban ship private truck vip custom2 authority delivery rail_electric taxi tram army hov coach motorcycle passenger bus rail emergency" index="1" length="16.509632755735122" shape="-2.76225,-6.5158000000000005 -4.1915,-9.443999999999999 -5.80575,-12.7515 -7.1968,-15.5996 -8.5767,-18.42505 -10.0455,-21.432299999999998" speed="36.11111111111111" width="2.990382731357308"/>
		<lane allow="moped bicycle pedestrian custom1 trailer evehicle rail_urban ship private truck vip custom2 authority delivery rail_electric taxi tram army hov coach motorcycle passenger bus rail emergency" index="2" length="16.509632755735122" shape="-0.006149999999999989,-7.86295 -1.45675,-10.8142 -3.0819,-14.1206 -4.4829,-16.9697 -5.8812999999999995,-19.81335 -7.36845,-22.837449999999997" speed="36.11111111111111" width="3.0564489100915795"/>
	</edge>
	<edge from="8" function="normal" id="3626" length="12.190574110865327" numLanes="3" priority="1" speed="36.11111111111111" spreadType="center" to="9">
		<lane allow="moped bicycle pedestrian custom1 trailer evehicle rail_urban ship private truck vip custom2 authority delivery rail_electric taxi tram army hov coach motorcycle passenger bus rail emergency" index="0" length="12.190574110865327" shape="-12.82455,-19.9735 -18.239849999999997,-30.89525" speed="36.11111111111111" width="3.286946748884138"/>
		<lane allow="moped bicycle pedestrian custom1 trailer evehicle rail_urban ship private truck vip custom2 authority delivery rail_electric taxi tram army hov coach motorcycle passenger bus rail emergency" index="1" length="12.190574110865327" shape="-10.0455,-21.432299999999998 -15.3962,-32.3879" speed="36.11111111111111" width="2.969358961122752"/>
		<lane allow="moped bicycle pedestrian custom1 trailer evehicle rail_urban ship private truck vip custom2 authority delivery rail_electric taxi tram army hov coach motorcycle passenger bus rail emergency" index="2" length="12.190574110865327" shape="-7.36845,-22.837449999999997 -12.748149999999999,-33.77785" speed="36.11111111111111" width="3.0119886487169913"/>
	</edge>
	<edge from="9" function="normal" id="3542" length="42.045033657747695" numLanes="3" priority="1" speed="36.11111111111111" spreadType="center" to="10">
		<lane allow="moped bicycle pedestrian custom1 trailer evehicle rail_urban ship private truck vip custom2 authority delivery rail_electric taxi tram army hov coach motorcycle passenger rail emergency" index="0" length="42.045033657747695" shape="-18.239849999999997,-30.89525 -22.40115,-39.433949999999996 -26.4544,-48.36395 -30.22645,-57.08245 -33.851200000000006,-66.3264 -35.16895,-69.53954999999999" speed="36.11111111111111" width="2.8481341330773025"/>
		<lane allow="moped bicycle pedestrian custom1 trailer evehicle rail_urban ship private truck vip custom2 authority delivery rail_electric taxi tram army hov coach motorcycle passenger bus rail emergency" index="1" length="42.045033657747695" shape="-15.3962,-32.3879 -19.6396,-40.9427 -23.72175,-49.7261 -27.4624,-58.4143 -31.116400000000002,-67.5346 -32.462450000000004,-70.87315000000001" speed="36.11111111111111" width="2.969358961122752"/>
		<lane allow="moped bicycle pedestrian custom1 trailer evehicle rail_urban ship private truck vip custom2 authority delivery rail_electric taxi tram army hov coach motorcycle passenger bus rail emergency" index="2" length="42.045033657747695" shape="-12.748149999999999,-33.77785 -16.970950000000002,-42.4578 -21.0213,-51.180099999999996 -24.79285,-59.8679 -28.2877,-68.66725 -29.700400000000002,-72.23410000000001" speed="36.11111111111111" width="2.962201547835665"/>
	</edge>
	<edge from="4" function="normal" id="3604" length="15.837809304392048" numLanes="1" priority="1" speed="36.11111111111111" spreadType="center" to="11">
		<lane allow="moped bicycle pedestrian custom1 trailer evehicle rail_urban ship private vip custom2 authority delivery rail_electric taxi tram army hov coach motorcycle passenger rail emergency" index="0" length="15.837809304392048" shape="-2.4002,8.59765 -3.44245,7.32355 -4.7012,5.7717 -6.0892,4.37545 -7.9696,3.14015 -9.6708,2.55635 -11.467,2.35865 -13.3887,2.57815 -15.7047,3.33035" speed="36.11111111111111" width="3.8433909311960446"/>
	</edge>
	<edge from="11" function="normal" id="3487" length="21.428343053832" numLanes="3" priority="1" speed="36.11111111111111" spreadType="center" to="12">
		<lane allow="moped bicycle pedestrian custom1 trailer evehicle rail_urban ship private truck vip custom2 authority delivery rail_electric taxi tram army hov coach motorcycle passenger bus rail emergency" index="0" length="21.428343053832" shape="-15.7047,3.33035 -24.9182,7.76975 -33.7551,12.58845 -34.751450000000006,13.13365" speed="36.11111111111111" width="4.576431161942677"/>
		<lane allow="moped bicycle pedestrian custom1 trailer evehicle rail_urban ship private truck vip custom2 authority delivery rail_electric taxi tram army hov coach motorcycle passenger bus rail emergency" index="1" length="21.428343053832" shape="-17.422,-1.1236 -26.81245,3.91845 -35.4589,9.08845 -36.48585,9.704899999999999" speed="36.11111111111111" width="3.108481309256979"/>
		<lane allow="moped bicycle pedestrian custom1 trailer evehicle rail_urban ship private truck vip custom2 authority delivery rail_electric taxi tram army hov coach motorcycle passenger bus rail emergency" index="2" length="21.428343053832" shape="-18.5577,-4.354699999999999 -28.339399999999998,0.8929500000000001 -36.98585,6.062950000000001 -38.01545,6.68105" speed="36.11111111111111" width="3.6645851129425275"/>
	</edge>
	<edge from="13" function="normal" id="3479" length="22.65181742569602" numLanes="3" priority="1" speed="36.11111111111111" spreadType="center" to="14">
		<lane allow="moped bicycle pedestrian custom1 trailer evehicle rail_urban ship private truck vip custom2 authority delivery rail_electric taxi tram army hov coach motorcycle passenger bus rail emergency" index="0" length="22.65181742569602" shape="-42.87875,-2.93325 -41.7362,-3.5111499999999998 -32.1562,-8.2635 -22.545749999999998,-13.047049999999999" speed="36.11111111111111" width="3.231198096681784"/>
		<lane allow="moped bicycle pedestrian custom1 trailer evehicle rail_urban ship private truck vip custom2 authority delivery rail_electric taxi tram army hov coach motorcycle passenger rail emergency" index="1" length="22.65181742569602" shape="-41.46725,-0.14285000000000003 -40.30545,-0.73055 -30.725450000000002,-5.482900000000001 -21.11495,-10.266449999999999" speed="36.11111111111111" width="3.022973122606289"/>
		<lane allow="moped bicycle pedestrian custom1 trailer evehicle rail_urban ship private truck vip custom2 authority delivery rail_electric taxi tram army hov coach motorcycle passenger rail emergency" index="2" length="22.65181742569602" shape="-40.0947,2.57055 -38.899100000000004,1.9657499999999999 -29.3191,-2.7866 -19.8082,-7.5072" speed="36.11111111111111" width="3.0586164927953923"/>
	</edge>
	<edge from="14" function="normal" id="3672" length="43.429643178518916" numLanes="1" priority="1" speed="36.11111111111111" spreadType="center" to="15">
		<lane allow="moped bicycle pedestrian custom1 trailer evehicle rail_urban ship private vip custom2 authority delivery rail_electric taxi tram army hov coach motorcycle passenger rail emergency" index="0" length="43.429643178518916" shape="-19.8082,-7.5072 -14.651,-10.047550000000001 -11.068200000000001,-11.53205 -7.2223500000000005,-12.890699999999999 -4.441649999999999,-13.861 -1.9557000000000002,-14.35785 0.27915,-14.57025 2.6153500000000003,-14.45325 4.25985,-14.31885 5.3693,-14.0626 6.30905,-13.4796 7.2283,-12.1294 8.384,-10.20105 11.051449999999999,-5.9636 12.6252,-2.9118500000000003 14.09695,0.2003" speed="36.11111111111111" width="2.9171821763475796"/>
	</edge>
	<edge from="15" function="normal" id="3456" length="24.710920579823167" numLanes="3" priority="1" speed="36.11111111111111" spreadType="center" to="16">
		<lane allow="moped bicycle pedestrian custom1 trailer evehicle rail_urban ship private truck vip custom2 authority delivery rail_electric taxi tram army hov coach motorcycle passenger bus rail emergency" index="0" length="24.710920579823167" shape="19.6236,-2.5594 23.2194,4.6342 27.07275,12.551300000000001 30.4354,19.6597" speed="36.11111111111111" width="3.0476685974692184"/>
		<lane allow="moped bicycle pedestrian custom1 trailer evehicle rail_urban ship private truck vip custom2 authority delivery rail_electric taxi tram army hov coach motorcycle passenger bus rail emergency" index="1" length="24.710920579823167" shape="16.79475,-1.16515 20.65485,6.40175 24.3331,13.96735 27.77195,20.997799999999998" speed="36.11111111111111" width="2.914824113046961"/>
		<lane allow="moped bicycle pedestrian custom1 trailer evehicle rail_urban ship private truck vip custom2 authority delivery rail_electric taxi tram army hov coach motorcycle passenger bus rail emergency" index="2" length="24.710920579823167" shape="14.09695,0.2003 18.02545,7.9625 21.8139,15.66505 25.185450000000003,22.31165" speed="36.11111111111111" width="2.888004380190582"/>
	</edge>
	<edge from="16" function="normal" id="3462" length="8.466645302154802" numLanes="3" priority="1" speed="36.11111111111111" spreadType="center" to="17">
		<lane allow="moped bicycle pedestrian custom1 trailer evehicle rail_urban ship private truck vip custom2 authority delivery rail_electric taxi tram army hov coach motorcycle passenger bus rail emergency" index="0" length="8.466645302154802" shape="30.4354,19.6597 34.3147,27.222450000000002" speed="36.11111111111111" width="3.0476685974692184"/>
		<lane allow="moped bicycle pedestrian custom1 trailer evehicle rail_urban ship private truck vip custom2 authority delivery rail_electric taxi tram army hov coach motorcycle passenger bus rail emergency" index="1" length="8.466645302154802" shape="27.77195,20.997799999999998 31.590049999999998,28.6075" speed="36.11111111111111" width="2.914824113046961"/>
		<lane allow="moped bicycle pedestrian custom1 trailer evehicle rail_urban ship private truck vip custom2 authority delivery rail_electric taxi tram army hov coach motorcycle passenger bus rail emergency" index="2" length="8.466645302154802" shape="25.185450000000003,22.31165 28.926099999999998,29.90715" speed="36.11111111111111" width="2.888004380190582"/>
	</edge>
	<edge from="17" function="normal" id="3470" length="7.644506528383627" numLanes="3" priority="1" speed="36.11111111111111" spreadType="center" to="18">
		<lane allow="moped bicycle pedestrian custom1 trailer evehicle rail_urban ship private truck vip custom2 authority delivery rail_electric taxi tram army hov coach motorcycle passenger bus rail emergency" index="0" length="7.644506528383627" shape="34.3147,27.222450000000002 37.7061,34.073499999999996" speed="36.11111111111111" width="3.05499916202934"/>
		<lane allow="moped bicycle pedestrian custom1 trailer evehicle rail_urban ship private truck vip custom2 authority delivery rail_electric taxi tram army hov coach motorcycle passenger bus rail emergency" index="1" length="7.644506528383627" shape="31.590049999999998,28.6075 35.00555,35.45985" speed="36.11111111111111" width="2.9980111023810427"/>
		<lane allow="moped bicycle pedestrian custom1 trailer evehicle rail_urban ship private truck vip custom2 authority delivery rail_electric taxi tram army hov coach motorcycle passenger bus rail emergency" index="2" length="7.644506528383627" shape="28.926099999999998,29.90715 32.32805,36.8344" speed="36.11111111111111" width="2.9350875710956195"/>
	</edge>
	<edge from="14" function="normal" id="3636" length="10.130444963203738" numLanes="2" priority="1" speed="36.11111111111111" spreadType="center" to="19">
		<lane allow="moped bicycle pedestrian custom1 trailer evehicle rail_urban ship private truck vip custom2 authority delivery rail_electric taxi tram army hov coach motorcycle passenger bus rail emergency" index="0" length="10.130444963203738" shape="-22.545749999999998,-13.047049999999999 -13.53465,-17.7324" speed="36.11111111111111" width="3.232186618993403"/>
		<lane allow="moped bicycle pedestrian custom1 trailer evehicle rail_urban ship private truck vip custom2 authority delivery rail_electric taxi tram army hov coach motorcycle passenger bus rail emergency" index="1" length="10.130444963203738" shape="-21.11495,-10.266449999999999 -12.090250000000001,-14.8687" speed="36.11111111111111" width="3.0254656269738027"/>
	</edge>
	<edge from="19" function="normal" id="3658" length="24.83401336288985" numLanes="2" priority="1" speed="36.11111111111111" spreadType="center" to="20">
		<lane allow="moped bicycle pedestrian custom1 trailer evehicle rail_urban ship private truck vip custom2 authority delivery rail_electric taxi tram army hov coach motorcycle passenger bus rail emergency" index="0" length="24.83401336288985" shape="-13.53465,-17.7324 -10.638850000000001,-19.238300000000002 -7.98335,-20.61905 -5.2664,-22.03175 -2.2781000000000002,-23.58565 0.42355,-24.99055 3.06825,-26.3657 5.7838,-27.7777 8.55555,-29.21895" speed="36.11111111111111" width="3.308908788407441"/>
		<lane allow="moped bicycle pedestrian custom1 trailer evehicle rail_urban ship private truck vip custom2 authority delivery rail_electric taxi tram army hov coach motorcycle passenger bus rail emergency" index="1" length="24.83401336288985" shape="-12.090250000000001,-14.8687 -9.222249999999999,-16.3313 -6.55125,-17.693350000000002 -3.81295,-19.0897 -0.84835,-20.60145 1.8620999999999999,-21.9837 4.51205,-23.33495 7.2465,-24.72925 10.0333,-26.150399999999998" speed="36.11111111111111" width="3.105783426126166"/>
	</edge>
	<edge from="20" function="normal" id="3676" length="16.15592838945517" numLanes="2" priority="1" speed="36.11111111111111" spreadType="center" to="5">
		<lane allow="moped bicycle pedestrian custom1 trailer evehicle rail_urban ship private truck vip custom2 authority delivery rail_electric taxi tram army hov coach motorcycle passenger bus rail emergency" index="0" length="16.15592838945517" shape="8.55555,-29.21895 14.57525,-32.2252 23.009300000000003,-36.437200000000004" speed="36.11111111111111" width="3.5034549033775226"/>
		<lane allow="moped bicycle pedestrian custom1 trailer evehicle rail_urban ship private truck vip custom2 authority delivery rail_electric taxi tram army hov coach motorcycle passenger bus rail emergency" index="1" length="16.15592838945517" shape="10.0333,-26.150399999999998 16.057949999999998,-29.1357 24.55415,-33.3456" speed="36.11111111111111" width="3.308224526842154"/>
	</edge>
	<edge from="14" function="normal" id="3600" length="24.197467511365534" numLanes="1" priority="1" speed="36.11111111111111" spreadType="center" to="9">
		<lane allow="moped bicycle pedestrian custom1 trailer evehicle rail_urban ship private vip custom2 authority delivery rail_electric taxi tram army hov coach motorcycle passenger rail emergency" index="0" length="24.197467511365534" shape="-22.545749999999998,-13.047049999999999 -18.05745,-15.442 -16.06445,-16.6321 -14.461400000000001,-17.5427 -13.7183,-18.02265 -13.2942,-18.61025 -13.2584,-19.4172 -13.6656,-20.8288 -14.4665,-22.79495 -15.44695,-24.8933 -18.239849999999997,-30.89525" speed="36.11111111111111" width="3.232186618993403"/>
	</edge>
	<edge from="21" function="normal" id="3502" length="11.539017429977406" numLanes="2" priority="1" speed="36.11111111111111" spreadType="center" to="22">
		<lane allow="moped bicycle pedestrian custom1 trailer evehicle rail_urban ship private truck vip custom2 authority delivery rail_electric taxi tram army hov coach motorcycle passenger bus rail emergency" index="0" length="11.539017429977406" shape="42.72324999999999,-30.8 37.67355,-28.3316 32.32915,-25.71905" speed="36.11111111111111" width="3.6072313177837665"/>
		<lane allow="moped bicycle pedestrian custom1 trailer evehicle rail_urban ship private truck vip custom2 authority delivery rail_electric taxi tram army hov coach motorcycle passenger bus rail emergency" index="1" length="11.539017429977406" shape="41.11865,-34.06585 36.14305,-31.6332 30.752200000000002,-28.99775" speed="36.11111111111111" width="3.630791497731585"/>
	</edge>
	<edge from="22" function="normal" id="3528" length="6.57557739613032" numLanes="3" priority="1" speed="36.11111111111111" spreadType="center" to="23">
		<lane allow="moped bicycle pedestrian custom1 trailer evehicle rail_urban ship private truck vip custom2 authority delivery rail_electric taxi tram army hov coach motorcycle passenger bus rail emergency" index="0" length="6.57557739613032" shape="32.32915,-25.71905 27.9063,-19.697200000000002" speed="36.11111111111111" width="3.245737241367512"/>
		<lane allow="moped bicycle pedestrian custom1 trailer evehicle rail_urban ship private truck vip custom2 authority delivery rail_electric taxi tram army hov coach motorcycle passenger bus rail emergency" index="1" length="6.57557739613032" shape="32.32915,-25.71905 26.41715,-22.779049999999998" speed="36.11111111111111" width="3.6024336135451542"/>
		<lane allow="moped bicycle pedestrian custom1 trailer evehicle rail_urban ship private truck vip custom2 authority delivery rail_electric taxi tram army hov coach motorcycle passenger bus rail emergency" index="2" length="6.57557739613032" shape="30.752200000000002,-28.99775 24.864150000000002,-26.07045" speed="36.11111111111111" width="3.6713079753679065"/>
	</edge>
	<edge from="23" function="normal" id="3534" length="6.6083636571393445" numLanes="3" priority="1" speed="36.11111111111111" spreadType="center" to="24">
		<lane allow="moped bicycle pedestrian custom1 trailer evehicle rail_urban ship private truck vip custom2 authority delivery rail_electric taxi tram army hov coach motorcycle passenger bus rail emergency" index="0" length="6.6083636571393445" shape="27.9063,-19.697200000000002 21.92675,-16.80775" speed="36.11111111111111" width="3.190167196245361"/>
		<lane allow="moped bicycle pedestrian custom1 trailer evehicle rail_urban ship private truck vip custom2 authority delivery rail_electric taxi tram army hov coach motorcycle passenger bus rail emergency" index="1" length="6.6083636571393445" shape="26.41715,-22.779049999999998 20.476999999999997,-19.8343" speed="36.11111111111111" width="3.5215687697388507"/>
		<lane allow="moped bicycle pedestrian custom1 trailer evehicle rail_urban ship private truck vip custom2 authority delivery rail_electric taxi tram army hov coach motorcycle passenger bus rail emergency" index="2" length="6.6083636571393445" shape="24.864150000000002,-26.07045 18.954099999999997,-23.113799999999998" speed="36.11111111111111" width="3.6773714878973"/>
	</edge>