<?xml version="1.0" encoding="UTF-8"?>

<!-- generated on Fri Dec 18 16:00:08 2020 by Eclipse SUMO netconvert Version 1.8.0
<configuration xmlns:xsi="http://www.w3.org/2001/XMLSchema-instance" xsi:noNamespaceSchemaLocation="http://sumo.dlr.de/xsd/netconvertConfiguration.xsd">

    <input>
        <node-files value="./converted_scenarios/NGSIM/Lankershim/USA_Lanker-1_3_I-1-1/nodes.net.xml"/>
        <edge-files value="./converted_scenarios/NGSIM/Lankershim/USA_Lanker-1_3_I-1-1/edges.net.xml"/>
        <connection-files value="./converted_scenarios/NGSIM/Lankershim/USA_Lanker-1_3_I-1-1/_connections.net.xml"/>
        <tllogic-files value="./converted_scenarios/NGSIM/Lankershim/USA_Lanker-1_3_I-1-1/_tll.net.xml"/>
    </input>

    <output>
        <output-file value="./converted_scenarios/NGSIM/Lankershim/USA_Lanker-1_3_I-1-1/USA_Lanker-1_3_I-1-1.net.xml"/>
    </output>

    <processing>
        <plain.extend-edge-shape value="true"/>
        <geometry.remove.keep-edges.explicit value="true"/>
        <geometry.avoid-overlap value="true"/>
        <offset.disable-normalization value="true"/>
    </processing>

    <junctions>
        <no-turnarounds value="true"/>
        <junctions.internal-link-detail value="20"/>
    </junctions>

    <report>
        <aggregate-warnings value="5"/>
    </report>

    <random_number>
        <seed value="1234"/>
    </random_number>

</configuration>
-->

<net version="1.6" junctionCornerDetail="5" junctionLinkDetail="20" limitTurnSpeed="5.50" xmlns:xsi="http://www.w3.org/2001/XMLSchema-instance" xsi:noNamespaceSchemaLocation="http://sumo.dlr.de/xsd/net_file.xsd">

    <location netOffset="0.00,0.00" convBoundary="-41.48,-76.98,41.92,41.00" origBoundary="-42.88,-79.71,42.72,43.75" projParameter="!"/>

    <edge id=":11_0" function="internal">
        <lane id=":11_0_0" index="0" disallow="bus truck rail_fast" speed="36.11" length="8.30" width="4.58" shape="-22.82,5.64 -14.96,2.97"/>
    </edge>
    <edge id=":11_1" function="internal">
        <lane id=":11_1_0" index="0" disallow="rail_fast" speed="36.11" length="1.01" width="3.11" shape="-15.87,-1.88 -16.80,-1.46"/>
        <lane id=":11_1_1" index="1" disallow="rail_fast" speed="36.11" length="1.01" width="3.66" shape="-17.19,-5.03 -18.10,-4.60"/>
    </edge>
    <edge id=":14_0" function="internal">
        <lane id=":14_0_0" index="0" disallow="bus truck rail_fast" speed="7.94" length="13.70" width="3.23" shape="-24.22,-12.21 -23.00,-12.83 -21.85,-13.41 -20.77,-13.97 -19.76,-14.51 -18.81,-15.02 -17.94,-15.51 -17.14,-15.97 -16.41,-16.40 -15.74,-16.81 -15.15,-17.19 -14.62,-17.55 -14.17,-17.89 -13.78,-18.19 -13.47,-18.48 -13.22,-18.73 -13.04,-18.97 -12.94,-19.17 -12.90,-19.35 -12.93,-19.51"/>
    </edge>
    <edge id=":14_1" function="internal">
        <lane id=":14_1_0" index="0" disallow="rail_fast" speed="36.11" length="13.45" width="3.23" shape="-24.22,-12.21 -12.29,-18.38"/>
        <lane id=":14_1_1" index="1" disallow="bus rail_fast" speed="36.11" length="13.45" width="3.03" shape="-22.83,-9.41 -10.82,-15.51"/>
    </edge>
    <edge id=":14_3" function="internal">
        <lane id=":14_3_0" index="0" disallow="bus truck rail_fast" speed="36.11" length="2.11" width="2.92" shape="-21.48,-6.68 -23.37,-5.75"/>
    </edge>
    <edge id=":15_0" function="internal">
        <lane id=":15_0_0" index="0" disallow="bus truck rail_fast" speed="9.12" length="13.80" width="3.05" shape="19.25,-14.65 18.88,-14.22 18.56,-13.77 18.28,-13.29 18.05,-12.77 17.87,-12.23 17.73,-11.66 17.63,-11.07 17.58,-10.44 17.58,-9.79 17.62,-9.11 17.71,-8.40 17.84,-7.66 18.02,-6.89 18.25,-6.10 18.52,-5.27 18.83,-4.42 19.19,-3.54 19.60,-2.64 20.05,-1.70"/>
    </edge>
    <edge id=":15_1" function="internal">
        <lane id=":15_1_0" index="0" disallow="rail_fast" speed="36.11" length="13.06" width="3.05" shape="14.41,-13.43 20.05,-1.70"/>
        <lane id=":15_1_1" index="1" disallow="rail_fast" speed="36.11" length="13.06" width="2.91" shape="11.59,-12.07 17.24,-0.29"/>
        <lane id=":15_1_2" index="2" disallow="rail_fast" speed="36.11" length="13.06" width="2.89" shape="8.87,-10.76 14.53,1.06"/>
    </edge>
    <edge id=":15_4" function="internal">
        <lane id=":15_4_0" index="0" disallow="bus truck rail_fast" speed="36.11" length="13.55" width="2.89" shape="8.01,-10.82 14.53,1.06"/>
    </edge>
    <edge id=":16_0" function="internal">
        <lane id=":16_0_0" index="0" disallow="rail_fast" speed="36.11" length="0.24" width="3.05" shape="30.39,19.56 30.49,19.76"/>
        <lane id=":16_0_1" index="1" disallow="rail_fast" speed="36.11" length="0.24" width="2.91" shape="27.72,20.89 27.83,21.11"/>
        <lane id=":16_0_2" index="2" disallow="rail_fast" speed="36.11" length="0.24" width="2.89" shape="25.12,22.19 25.24,22.41"/>
    </edge>
    <edge id=":17_0" function="internal">
        <lane id=":17_0_0" index="0" disallow="rail_fast" speed="36.11" length="3.05" width="3.05" shape="33.60,25.84 34.98,28.57"/>
        <lane id=":17_0_1" index="1" disallow="rail_fast" speed="36.11" length="3.05" width="3.00" shape="30.88,27.20 32.25,29.92"/>
        <lane id=":17_0_2" index="2" disallow="rail_fast" speed="36.11" length="3.05" width="2.94" shape="28.24,28.52 29.58,31.25"/>
    </edge>
    <edge id=":19_0" function="internal">
        <lane id=":19_0_0" index="0" disallow="rail_fast" speed="36.11" length="0.12" width="3.31" shape="-12.11,-18.47 -12.22,-18.42"/>
        <lane id=":19_0_1" index="1" disallow="rail_fast" speed="36.11" length="0.12" width="3.11" shape="-10.65,-15.61 -10.75,-15.55"/>
    </edge>
    <edge id=":2_0" function="internal">
        <lane id=":2_0_0" index="0" disallow="rail_fast" speed="21.97" length="7.43" width="2.94" shape="16.50,39.09 16.24,38.59 16.01,38.15 15.79,37.75 15.58,37.39 15.38,37.07 15.18,36.78 14.99,36.52 14.80,36.28 14.60,36.05 14.40,35.83 14.18,35.61 13.95,35.39 13.71,35.17 13.45,34.93 13.16,34.67 12.85,34.39 12.51,34.09 12.13,33.74 11.72,33.36"/>
        <lane id=":2_0_1" index="1" disallow="rail_fast" speed="36.11" length="7.43" width="2.94" shape="16.50,39.09 13.19,32.53"/>
        <lane id=":2_0_2" index="2" disallow="rail_fast" speed="36.11" length="7.43" width="3.05" shape="19.17,37.74 15.83,31.03"/>
        <lane id=":2_0_3" index="3" disallow="rail_fast" speed="36.11" length="7.43" width="3.03" shape="21.90,36.36 18.49,29.52"/>
        <lane id=":2_0_4" index="4" disallow="rail_fast" speed="36.11" length="7.43" width="3.05" shape="24.63,34.99 21.15,28.02"/>
        <lane id=":2_0_5" index="5" disallow="rail_fast" speed="36.11" length="7.43" width="3.12" shape="27.37,33.60 24.38,27.53"/>
    </edge>
    <edge id=":20_0" function="internal">
        <lane id=":20_0_0" index="0" disallow="rail_fast" speed="36.11" length="3.06" width="3.50" shape="7.16,-28.49 9.89,-29.89"/>
        <lane id=":20_0_1" index="1" disallow="rail_fast" speed="36.11" length="3.06" width="3.31" shape="8.67,-25.45 11.39,-26.82"/>
    </edge>
    <edge id=":22_0" function="internal">
        <lane id=":22_0_0" index="0" disallow="rail_fast" speed="14.45" length="8.28" width="3.25" shape="35.98,-27.50 35.44,-27.24 34.95,-26.99 34.50,-26.77 34.10,-26.56 33.74,-26.35 33.41,-26.16 33.11,-25.97 32.83,-25.77 32.57,-25.57 32.32,-25.36 32.08,-25.13 31.84,-24.89 31.60,-24.62 31.35,-24.33 31.10,-24.01 30.82,-23.65 30.52,-23.25 30.19,-22.81 29.84,-22.32"/>
        <lane id=":22_0_1" index="1" disallow="rail_fast" speed="36.11" length="8.28" width="3.60" shape="35.98,-27.50 28.74,-23.94"/>
        <lane id=":22_0_2" index="2" disallow="rail_fast" speed="36.11" length="8.28" width="3.67" shape="34.39,-30.78 26.69,-26.98"/>
    </edge>
    <edge id=":23_0" function="internal">
        <lane id=":23_0_0" index="0" disallow="rail_fast" speed="9.74" length="3.41" width="3.19" shape="28.50,-20.50 28.34,-20.29 28.18,-20.10 28.04,-19.93 27.90,-19.79 27.77,-19.66 27.64,-19.55 27.51,-19.45 27.39,-19.37 27.26,-19.29 27.12,-19.23 26.99,-19.16 26.84,-19.10 26.69,-19.04 26.52,-18.97 26.34,-18.90 26.15,-18.82 25.94,-18.73 25.71,-18.63 25.46,-18.52"/>
        <lane id=":23_0_1" index="1" disallow="rail_fast" speed="36.11" length="3.41" width="3.52" shape="27.02,-23.08 23.99,-21.58"/>
        <lane id=":23_0_2" index="2" disallow="rail_fast" speed="36.11" length="3.41" width="3.68" shape="25.21,-26.24 22.41,-24.84"/>
    </edge>
    <edge id=":24_0" function="internal">
        <lane id=":24_0_0" index="0" disallow="bus truck rail_fast" speed="14.27" length="3.68" width="2.93" shape="22.84,-17.25 22.59,-17.13 22.37,-17.03 22.17,-16.93 21.98,-16.85 21.81,-16.77 21.65,-16.69 21.51,-16.62 21.37,-16.55 21.24,-16.48 21.12,-16.41 20.99,-16.33 20.87,-16.24 20.74,-16.14 20.61,-16.03 20.47,-15.91 20.33,-15.77 20.17,-15.61 20.00,-15.44 19.81,-15.24"/>
    </edge>
    <edge id=":24_1" function="internal">
        <lane id=":24_1_0" index="0" disallow="rail_fast" speed="36.11" length="11.27" width="3.46" shape="21.39,-20.29 11.30,-15.29"/>
        <lane id=":24_1_1" index="1" disallow="rail_fast" speed="36.11" length="11.27" width="3.70" shape="19.83,-23.55 9.75,-18.49"/>
    </edge>
    <edge id=":24_3" function="internal">
        <lane id=":24_3_0" index="0" disallow="bus truck rail_fast" speed="17.55" length="16.88" width="3.01" shape="19.83,-23.55 18.69,-22.99 17.60,-22.49 16.56,-22.05 15.57,-21.66 14.62,-21.31 13.71,-21.02 12.84,-20.76 12.00,-20.55 11.18,-20.38 10.39,-20.24 9.61,-20.14 8.85,-20.07 8.09,-20.03 7.35,-20.01 6.61,-20.02 5.86,-20.05 5.11,-20.10 4.34,-20.16 3.57,-20.24"/>
    </edge>
    <edge id=":25_0" function="internal">
        <lane id=":25_0_0" index="0" disallow="rail_fast" speed="36.11" length="2.24" width="3.21" shape="11.12,-15.20 13.13,-16.20"/>
        <lane id=":25_0_1" index="1" disallow="rail_fast" speed="36.11" length="2.24" width="3.68" shape="9.57,-18.41 11.56,-19.41"/>
    </edge>
    <edge id=":26_0" function="internal">
        <lane id=":26_0_0" index="0" disallow="rail_fast" speed="36.11" length="14.96" width="3.17" shape="3.46,-11.41 -9.95,-4.79"/>
        <lane id=":26_0_1" index="1" disallow="rail_fast" speed="36.11" length="14.96" width="3.68" shape="1.89,-14.55 -11.48,-7.86"/>
    </edge>
    <edge id=":26_2" function="internal">
        <lane id=":26_2_0" index="0" disallow="bus truck rail_fast" speed="11.28" length="15.17" width="3.68" shape="-2.64,-19.44 -2.81,-18.62 -3.00,-17.83 -3.23,-17.05 -3.49,-16.31 -3.79,-15.58 -4.12,-14.88 -4.48,-14.20 -4.88,-13.54 -5.31,-12.91 -5.78,-12.30 -6.28,-11.71 -6.81,-11.15 -7.38,-10.61 -7.98,-10.09 -8.61,-9.60 -9.28,-9.13 -9.98,-8.68 -10.72,-8.26 -11.48,-7.86"/>
    </edge>
    <edge id=":28_0" function="internal">
        <lane id=":28_0_0" index="0" disallow="bus truck rail_fast" speed="10.22" length="10.24" width="3.11" shape="3.35,-44.51 3.58,-44.11 3.84,-43.72 4.12,-43.34 4.42,-42.98 4.75,-42.63 5.10,-42.29 5.47,-41.96 5.86,-41.65 6.28,-41.35 6.72,-41.07 7.18,-40.79 7.66,-40.53 8.16,-40.29 8.69,-40.05 9.24,-39.83 9.82,-39.62 10.41,-39.43 11.03,-39.24 11.67,-39.07"/>
    </edge>
    <edge id=":28_1" function="internal">
        <lane id=":28_1_0" index="0" disallow="bus truck rail_fast" speed="11.58" length="11.05" width="3.13" shape="0.29,-42.91 0.66,-42.19 1.00,-41.56 1.33,-40.99 1.65,-40.48 1.96,-40.03 2.28,-39.63 2.60,-39.27 2.93,-38.95 3.28,-38.66 3.64,-38.40 4.03,-38.16 4.45,-37.93 4.90,-37.72 5.38,-37.50 5.91,-37.28 6.49,-37.05 7.12,-36.80 7.80,-36.53 8.55,-36.24"/>
    </edge>
    <edge id=":28_2" function="internal">
        <lane id=":28_2_0" index="0" disallow="rail_fast" speed="36.11" length="10.45" width="3.12" shape="0.29,-42.91 4.86,-33.35"/>
        <lane id=":28_2_1" index="1" disallow="rail_fast" speed="36.11" length="10.45" width="3.06" shape="-2.44,-41.47 2.06,-32.04"/>
        <lane id=":28_2_2" index="2" disallow="rail_fast" speed="36.11" length="10.45" width="2.98" shape="-5.13,-40.05 -0.67,-30.75"/>
    </edge>
    <edge id=":28_5" function="internal">
        <lane id=":28_5_0" index="0" disallow="bus truck rail_fast" speed="36.11" length="10.20" width="2.87" shape="-7.82,-38.64 -7.48,-37.95 -7.18,-37.34 -6.90,-36.78 -6.64,-36.27 -6.41,-35.80 -6.20,-35.37 -6.00,-34.97 -5.82,-34.58 -5.65,-34.21 -5.48,-33.84 -5.31,-33.46 -5.15,-33.07 -4.98,-32.66 -4.81,-32.22 -4.63,-31.74 -4.44,-31.22 -4.23,-30.64 -4.01,-30.00 -3.76,-29.29"/>
    </edge>
    <edge id=":29_0" function="internal">
        <lane id=":29_0_0" index="0" disallow="rail_fast" speed="36.11" length="3.22" width="3.12" shape="5.74,-31.49 7.13,-28.59"/>
        <lane id=":29_0_1" index="1" disallow="rail_fast" speed="36.11" length="3.22" width="3.06" shape="2.99,-30.09 4.37,-27.19"/>
        <lane id=":29_0_2" index="2" disallow="rail_fast" speed="36.11" length="3.22" width="2.95" shape="0.29,-28.72 1.68,-25.82"/>
    </edge>
    <edge id=":3_0" function="internal">
        <lane id=":3_0_0" index="0" disallow="rail_fast" speed="15.71" length="3.50" width="3.22" shape="11.34,33.00 11.13,32.82 10.94,32.66 10.76,32.52 10.59,32.39 10.43,32.28 10.28,32.19 10.14,32.10 10.00,32.01 9.87,31.93 9.74,31.85 9.62,31.76 9.50,31.66 9.38,31.55 9.27,31.43 9.15,31.29 9.03,31.13 8.91,30.95 8.78,30.73 8.65,30.49"/>
        <lane id=":3_0_1" index="1" disallow="rail_fast" speed="36.11" length="3.50" width="2.87" shape="13.00,32.15 11.48,29.13"/>
        <lane id=":3_0_2" index="2" disallow="rail_fast" speed="36.11" length="3.50" width="3.00" shape="15.70,30.76 14.23,27.80"/>
        <lane id=":3_0_3" index="3" disallow="rail_fast" speed="36.11" length="3.50" width="3.02" shape="18.41,29.36 16.96,26.46"/>
        <lane id=":3_0_4" index="4" disallow="rail_fast" speed="36.11" length="3.50" width="3.02" shape="21.11,27.93 19.68,25.07"/>
        <lane id=":3_0_5" index="5" disallow="rail_fast" speed="36.11" length="3.50" width="3.03" shape="24.29,27.35 22.47,23.66"/>
    </edge>
    <edge id=":30_0" function="internal">
        <lane id=":30_0_0" index="0" disallow="rail_fast" speed="36.11" length="2.64" width="3.14" shape="13.18,-16.00 14.32,-13.61"/>
        <lane id=":30_0_1" index="1" disallow="rail_fast" speed="36.11" length="2.64" width="3.10" shape="10.37,-14.64 11.51,-12.25"/>
        <lane id=":30_0_2" index="2" disallow="rail_fast" speed="36.11" length="2.64" width="2.93" shape="7.65,-13.32 8.78,-10.94"/>
    </edge>
    <edge id=":4_0" function="internal">
        <lane id=":4_0_0" index="0" disallow="bus truck rail_fast" speed="36.11" length="5.96" width="3.84" shape="-0.61,12.08 -0.81,11.68 -0.99,11.32 -1.16,11.00 -1.30,10.70 -1.44,10.43 -1.56,10.18 -1.68,9.95 -1.79,9.73 -1.91,9.52 -2.02,9.31 -2.14,9.11 -2.28,8.90 -2.42,8.69 -2.58,8.46 -2.75,8.22 -2.95,7.95 -3.17,7.67 -3.42,7.35 -3.70,7.01"/>
    </edge>
    <edge id=":4_1" function="internal">
        <lane id=":4_1_0" index="0" disallow="rail_fast" speed="36.11" length="6.33" width="2.87" shape="2.35,10.57 -0.50,4.88"/>
        <lane id=":4_1_1" index="1" disallow="rail_fast" speed="36.11" length="6.33" width="3.02" shape="5.00,9.21 2.16,3.56"/>
        <lane id=":4_1_2" index="2" disallow="rail_fast" speed="36.11" length="6.33" width="3.12" shape="7.73,7.82 4.93,2.19"/>
    </edge>
    <edge id=":4_4" function="internal">
        <lane id=":4_4_0" index="0" disallow="bus truck rail_fast" speed="36.11" length="6.26" width="2.93" shape="10.47,6.42 7.68,0.83"/>
    </edge>
    <edge id=":4_5" function="internal">
        <lane id=":4_5_0" index="0" disallow="bus truck rail_fast" speed="36.11" length="6.22" width="3.03" shape="13.19,5.04 10.41,-0.53"/>
    </edge>
    <edge id=":5_0" function="internal">
        <lane id=":5_0_0" index="0" disallow="bus truck rail_fast" speed="10.83" length="9.96" width="3.88" shape="12.53,-38.86 13.17,-38.70 13.75,-38.56 14.28,-38.44 14.77,-38.34 15.23,-38.25 15.65,-38.19 16.05,-38.15 16.43,-38.13 16.80,-38.14 17.17,-38.17 17.53,-38.22 17.90,-38.31 18.29,-38.41 18.69,-38.55 19.12,-38.72 19.58,-38.91 20.08,-39.13 20.62,-39.39 21.21,-39.68"/>
        <lane id=":5_0_1" index="1" disallow="bus truck rail_fast" speed="12.01" length="9.96" width="3.51" shape="12.40,-35.30 13.17,-35.12 13.87,-34.96 14.52,-34.82 15.11,-34.70 15.66,-34.61 16.17,-34.54 16.65,-34.50 17.11,-34.48 17.55,-34.49 17.99,-34.53 18.43,-34.60 18.87,-34.70 19.33,-34.83 19.82,-35.00 20.33,-35.20 20.88,-35.43 21.48,-35.70 22.13,-36.01 22.84,-36.36"/>
    </edge>
    <edge id=":5_2" function="internal">
        <lane id=":5_2_0" index="0" disallow="bus truck rail_fast" speed="36.11" length="10.89" width="3.51" shape="13.18,-31.25 22.84,-36.36"/>
        <lane id=":5_2_1" index="1" disallow="bus truck rail_fast" speed="36.11" length="10.89" width="3.38" shape="14.93,-27.93 15.59,-28.40 16.19,-28.82 16.73,-29.20 17.23,-29.53 17.69,-29.83 18.12,-30.10 18.52,-30.34 18.91,-30.57 19.29,-30.78 19.67,-30.98 20.06,-31.18 20.46,-31.38 20.89,-31.58 21.34,-31.80 21.84,-32.04 22.38,-32.29 22.98,-32.58 23.64,-32.90 24.37,-33.26"/>
    </edge>
    <edge id=":5_4" function="internal">
        <lane id=":5_4_0" index="0" disallow="rail_fast" speed="36.11" length="13.99" width="3.51" shape="10.32,-30.10 22.84,-36.36"/>
        <lane id=":5_4_1" index="1" disallow="rail_fast" speed="36.11" length="13.99" width="3.38" shape="11.84,-27.05 24.37,-33.26"/>
    </edge>
    <edge id=":7_0" function="internal">
        <lane id=":7_0_0" index="0" disallow="rail_fast" speed="36.11" length="3.02" width="3.06" shape="-4.81,-3.81 -6.16,-6.52"/>
        <lane id=":7_0_1" index="1" disallow="rail_fast" speed="36.11" length="3.02" width="2.99" shape="-2.09,-5.15 -3.42,-7.87"/>
        <lane id=":7_0_2" index="2" disallow="rail_fast" speed="36.11" length="3.02" width="3.06" shape="0.66,-6.50 -0.67,-9.21"/>
    </edge>
    <edge id=":8_0" function="internal">
        <lane id=":8_0_0" index="0" disallow="rail_fast" speed="36.11" length="0.10" width="3.29" shape="-12.13,-18.58 -12.15,-18.60"/>
        <lane id=":8_0_1" index="1" disallow="rail_fast" speed="36.11" length="0.10" width="2.97" shape="-9.35,-20.01 -9.36,-20.04"/>
        <lane id=":8_0_2" index="2" disallow="rail_fast" speed="36.11" length="0.10" width="3.01" shape="-6.66,-21.39 -6.67,-21.42"/>
    </edge>
    <edge id=":9_0" function="internal">
        <lane id=":9_0_0" index="0" disallow="bus rail_fast" speed="36.11" length="15.32" width="2.85" shape="-12.23,-18.78 -19.03,-32.51"/>
        <lane id=":9_0_1" index="1" disallow="rail_fast" speed="36.11" length="15.32" width="2.97" shape="-9.45,-20.21 -16.18,-33.97"/>
        <lane id=":9_0_2" index="2" disallow="rail_fast" speed="36.11" length="15.32" width="2.96" shape="-6.76,-21.60 -13.51,-35.34"/>
    </edge>
    <edge id=":9_3" function="internal">
        <lane id=":9_3_0" index="0" disallow="bus truck rail_fast" speed="14.99" length="18.43" width="2.96" shape="-2.22,-21.30 -2.94,-21.62 -3.62,-21.98 -4.28,-22.37 -4.92,-22.81 -5.53,-23.29 -6.13,-23.81 -6.71,-24.38 -7.28,-24.99 -7.84,-25.66 -8.39,-26.37 -8.94,-27.13 -9.49,-27.95 -10.04,-28.83 -10.59,-29.76 -11.15,-30.75 -11.72,-31.80 -12.30,-32.92 -12.90,-34.10 -13.51,-35.34"/>
    </edge>
    <edge id=":9_4" function="internal">
        <lane id=":9_4_0" index="0" disallow="bus truck rail_fast" speed="36.11" length="14.16" width="2.85" shape="-13.02,-19.69 -19.03,-32.51"/>
    </edge>

    <edge id="3431" from="1" to="2" priority="1" spreadType="center" length="7.75">
        <lane id="3431_0" index="0" disallow="rail_fast" speed="36.11" length="7.75" width="2.84" customShape="1" shape="18.81,43.65 16.50,39.09"/>
        <lane id="3431_1" index="1" disallow="rail_fast" speed="36.11" length="7.75" width="3.06" customShape="1" shape="21.48,42.40 19.17,37.74"/>
        <lane id="3431_2" index="2" disallow="rail_fast" speed="36.11" length="7.75" width="3.03" customShape="1" shape="24.19,41.01 21.90,36.36"/>
        <lane id="3431_3" index="3" disallow="rail_fast" speed="36.11" length="7.75" width="3.05" customShape="1" shape="26.94,39.66 24.63,34.99"/>
        <lane id="3431_4" index="4" disallow="rail_fast" speed="36.11" length="7.75" width="3.05" customShape="1" shape="29.69,38.31 27.37,33.60"/>
    </edge>
    <edge id="3438" from="2" to="3" priority="1" spreadType="center" length="8.44">
        <lane id="3438_0" index="0" disallow="rail_fast" speed="36.11" length="8.44" width="2.94" customShape="1" shape="11.72,33.36 11.34,33.00"/>
        <lane id="3438_1" index="1" disallow="rail_fast" speed="36.11" length="8.44" width="2.94" customShape="1" shape="13.19,32.53 13.00,32.15"/>
        <lane id="3438_2" index="2" disallow="rail_fast" speed="36.11" length="8.44" width="3.05" customShape="1" shape="15.83,31.03 15.70,30.76"/>
        <lane id="3438_3" index="3" disallow="rail_fast" speed="36.11" length="8.44" width="3.03" customShape="1" shape="18.49,29.52 18.41,29.36"/>
        <lane id="3438_4" index="4" disallow="rail_fast" speed="36.11" length="8.44" width="3.05" customShape="1" shape="21.15,28.02 21.11,27.93"/>
        <lane id="3438_5" index="5" disallow="rail_fast" speed="36.11" length="8.44" width="3.12" customShape="1" shape="24.38,27.53 24.29,27.35"/>
    </edge>
    <edge id="3450" from="3" to="4" priority="1" spreadType="center" length="24.49">
        <lane id="3450_0" index="0" disallow="rail_fast" speed="36.11" length="24.49" width="3.22" customShape="1" shape="8.65,30.49 5.47,24.23 1.69,16.54 -0.61,12.08"/>
        <lane id="3450_1" index="1" disallow="rail_fast" speed="36.11" length="24.49" width="2.87" customShape="1" shape="11.48,29.13 8.47,23.08 4.65,15.13 2.35,10.57"/>
        <lane id="3450_2" index="2" disallow="rail_fast" speed="36.11" length="24.49" width="3.00" customShape="1" shape="14.23,27.80 11.21,21.75 7.35,13.80 5.00,9.21"/>
        <lane id="3450_3" index="3" disallow="rail_fast" speed="36.11" length="24.49" width="3.02" customShape="1" shape="16.96,26.46 13.87,20.30 9.99,12.35 7.73,7.82"/>
        <lane id="3450_4" index="4" disallow="rail_fast" speed="36.11" length="24.49" width="3.02" customShape="1" shape="19.68,25.07 16.56,18.84 12.68,10.89 10.47,6.42"/>
        <lane id="3450_5" index="5" disallow="rail_fast" speed="36.11" length="24.49" width="3.03" customShape="1" shape="22.47,23.66 19.25,17.34 15.37,9.39 13.19,5.04"/>
    </edge>
    <edge id="3456" from="15" to="16" priority="1" spreadType="center" length="24.71">
        <lane id="3456_0" index="0" disallow="rail_fast" speed="36.11" length="24.71" width="3.05" customShape="1" shape="20.05,-1.70 23.22,4.63 27.07,12.55 30.39,19.56"/>
        <lane id="3456_1" index="1" disallow="rail_fast" speed="36.11" length="24.71" width="2.91" customShape="1" shape="17.24,-0.29 20.65,6.40 24.33,13.97 27.72,20.89"/>
        <lane id="3456_2" index="2" disallow="rail_fast" speed="36.11" length="24.71" width="2.89" customShape="1" shape="14.53,1.06 18.03,7.96 21.81,15.67 25.12,22.19"/>
    </edge>
    <edge id="3462" from="16" to="17" priority="1" spreadType="center" length="8.47">
        <lane id="3462_0" index="0" disallow="rail_fast" speed="36.11" length="8.47" width="3.05" customShape="1" shape="30.49,19.76 33.60,25.84"/>
        <lane id="3462_1" index="1" disallow="rail_fast" speed="36.11" length="8.47" width="2.91" customShape="1" shape="27.83,21.11 30.88,27.20"/>
        <lane id="3462_2" index="2" disallow="rail_fast" speed="36.11" length="8.47" width="2.89" customShape="1" shape="25.24,22.41 28.24,28.52"/>
    </edge>
    <edge id="3470" from="17" to="18" priority="1" spreadType="center" length="7.64">
        <lane id="3470_0" index="0" disallow="rail_fast" speed="36.11" length="7.64" width="3.05" customShape="1" shape="34.98,28.57 37.73,34.11"/>
        <lane id="3470_1" index="1" disallow="rail_fast" speed="36.11" length="7.64" width="3.00" customShape="1" shape="32.25,29.92 35.01,35.46"/>
        <lane id="3470_2" index="2" disallow="rail_fast" speed="36.11" length="7.64" width="2.94" customShape="1" shape="29.58,31.25 32.33,36.83"/>
    </edge>
    <edge id="3479" from="13" to="14" priority="1" spreadType="center" length="22.65">
        <lane id="3479_0" index="0" disallow="rail_fast" speed="36.11" length="22.65" width="3.23" customShape="1" shape="-42.88,-2.93 -41.74,-3.51 -32.16,-8.26 -24.22,-12.21"/>
        <lane id="3479_1" index="1" disallow="bus rail_fast" speed="36.11" length="22.65" width="3.02" customShape="1" shape="-41.47,-0.14 -40.31,-0.73 -30.73,-5.48 -22.83,-9.41"/>
        <lane id="3479_2" index="2" disallow="bus rail_fast" speed="36.11" length="22.65" width="3.06" customShape="1" shape="-40.09,2.57 -38.90,1.97 -29.32,-2.79 -21.48,-6.68"/>
    </edge>
    <edge id="3487" from="11" to="12" priority="1" spreadType="center" length="21.43">
        <lane id="3487_0" index="0" disallow="rail_fast" speed="36.11" length="21.43" width="4.58" acceleration="1" customShape="1" shape="-14.96,2.97 -24.92,7.77 -33.76,12.59 -34.65,13.08"/>
        <lane id="3487_1" index="1" disallow="rail_fast" speed="36.11" length="21.43" width="3.11" customShape="1" shape="-16.80,-1.46 -26.81,3.92 -35.46,9.09 -36.49,9.71"/>
        <lane id="3487_2" index="2" disallow="rail_fast" speed="36.11" length="21.43" width="3.66" customShape="1" shape="-18.10,-4.60 -28.34,0.89 -36.99,6.06 -38.11,6.74"/>
    </edge>
    <edge id="3495" from="5" to="6" priority="1" spreadType="center" length="15.18">
        <lane id="3495_0" index="0" disallow="rail_fast" speed="36.11" length="15.18" width="3.88" customShape="1" shape="21.21,-39.68 30.11,-44.06 35.02,-46.48"/>
        <lane id="3495_1" index="1" disallow="rail_fast" speed="36.11" length="15.18" width="3.51" customShape="1" shape="22.84,-36.36 31.74,-40.73 36.66,-43.15"/>
        <lane id="3495_2" index="2" disallow="rail_fast" speed="36.11" length="15.18" width="3.38" customShape="1" shape="24.37,-33.26 33.23,-37.61 38.18,-40.05"/>
    </edge>
    <edge id="3502" from="21" to="22" priority="1" spreadType="center" length="11.54">
        <lane id="3502_0" index="0" disallow="rail_fast" speed="36.11" length="11.54" width="3.61" customShape="1" shape="42.72,-30.80 37.67,-28.33 35.98,-27.50"/>
        <lane id="3502_1" index="1" disallow="rail_fast" speed="36.11" length="11.54" width="3.63" customShape="1" shape="41.12,-34.07 36.14,-31.63 34.39,-30.78"/>
    </edge>
    <edge id="3528" from="22" to="23" priority="1" spreadType="center" length="6.58">
        <lane id="3528_0" index="0" disallow="rail_fast" speed="36.11" length="6.58" width="3.25" customShape="1" shape="29.84,-22.32 28.50,-20.50"/>
        <lane id="3528_1" index="1" disallow="rail_fast" speed="36.11" length="6.58" width="3.60" customShape="1" shape="28.74,-23.94 27.02,-23.08"/>
        <lane id="3528_2" index="2" disallow="rail_fast" speed="36.11" length="6.58" width="3.67" customShape="1" shape="26.69,-26.98 25.21,-26.24"/>
    </edge>
    <edge id="3534" from="23" to="24" priority="1" spreadType="center" length="6.61">
        <lane id="3534_0" index="0" disallow="rail_fast" speed="36.11" length="6.61" width="3.19" customShape="1" shape="25.46,-18.52 22.84,-17.25"/>
        <lane id="3534_1" index="1" disallow="rail_fast" speed="36.11" length="6.61" width="3.52" customShape="1" shape="23.99,-21.58 21.39,-20.29"/>
        <lane id="3534_2" index="2" disallow="rail_fast" speed="36.11" length="6.61" width="3.68" customShape="1" shape="22.41,-24.84 19.83,-23.55"/>
    </edge>
    <edge id="3542" from="9" to="10" priority="1" spreadType="center" length="42.05">
        <lane id="3542_0" index="0" disallow="bus rail_fast" speed="36.11" length="42.05" width="2.85" customShape="1" shape="-19.03,-32.51 -22.40,-39.43 -26.45,-48.36 -30.23,-57.08 -33.85,-66.33 -35.25,-69.73"/>
        <lane id="3542_1" index="1" disallow="rail_fast" speed="36.11" length="42.05" width="2.97" customShape="1" shape="-16.18,-33.97 -19.64,-40.94 -23.72,-49.73 -27.46,-58.41 -31.12,-67.53 -32.46,-70.87"/>
        <lane id="3542_2" index="2" disallow="rail_fast" speed="36.11" length="42.05" width="2.96" customShape="1" shape="-13.51,-35.34 -16.97,-42.46 -21.02,-51.18 -24.79,-59.87 -28.29,-68.67 -29.62,-72.04"/>
    </edge>
    <edge id="3573" from="27" to="28" priority="1" spreadType="center" length="41.48">
        <lane id="3573_0" index="0" disallow="rail_fast" speed="36.11" length="41.48" width="3.35" customShape="1" shape="-14.53,-79.71 -12.87,-76.38 -8.61,-67.80 -4.18,-58.87 0.12,-50.41 3.35,-44.51"/>
        <lane id="3573_1" index="1" disallow="rail_fast" speed="36.11" length="41.48" width="2.88" customShape="1" shape="-17.39,-78.30 -15.64,-74.81 -11.45,-66.44 -6.91,-57.37 -2.69,-48.94 0.29,-42.91"/>
        <lane id="3573_2" index="2" disallow="rail_fast" speed="36.11" length="41.48" width="3.08" customShape="1" shape="-20.11,-76.96 -18.33,-73.41 -14.14,-65.04 -9.60,-55.97 -5.38,-47.54 -2.44,-41.47"/>
        <lane id="3573_3" index="3" disallow="rail_fast" speed="36.11" length="41.48" width="2.82" customShape="1" shape="-22.80,-75.64 -21.00,-72.05 -16.81,-63.67 -12.27,-54.61 -8.10,-46.13 -5.13,-40.05"/>
        <lane id="3573_4" index="4" disallow="rail_fast" speed="36.11" length="41.48" width="3.05" customShape="1" shape="-25.51,-74.31 -23.70,-70.63 -19.51,-62.25 -14.97,-53.19 -10.80,-44.71 -7.82,-38.64"/>
    </edge>
    <edge id="3600" from="14" to="9" priority="1" spreadType="center" length="24.20">
        <lane id="3600_0" index="0" disallow="bus truck rail_fast" speed="36.11" length="24.20" width="3.23" customShape="1" shape="-12.93,-19.51 -13.02,-19.69"/>
    </edge>
    <edge id="3602" from="24" to="15" priority="1" spreadType="center" length="16.41">
        <lane id="3602_0" index="0" disallow="bus truck rail_fast" speed="36.11" length="16.41" width="2.93" customShape="1" shape="19.81,-15.24 19.25,-14.65"/>
    </edge>
    <edge id="3604" from="4" to="11" priority="1" spreadType="center" length="15.84">
        <lane id="3604_0" index="0" disallow="bus truck rail_fast" speed="36.11" length="15.84" width="3.84" customShape="1" shape="-3.70,7.01 -4.70,5.77 -6.09,4.38 -7.97,3.14 -9.67,2.56 -11.47,2.36 -13.39,2.58 -22.82,5.64"/>
    </edge>