<routes>
	<vehicle depart="0.1" departLane="3" departPos="70.22270268553629" departSpeed="15.6454" id="595" type="passenger">
		<route edges="4"/>
	</vehicle>
	<vehicle depart="0.1" departLane="4" departPos="58.09673365005267" departSpeed="18.3276" id="596" type="passenger">
		<route edges="4"/>
	</vehicle>
	<vehicle depart="0.1" departLane="1" departPos="70.2514645163263" departSpeed="15.2278" id="597" type="passenger">
		<route edges="4"/>
	</vehicle>
	<vehicle depart="0.1" departLane="5" departPos="79.00779754953227" departSpeed="13.713" id="598" type="passenger">
		<route edges="4"/>
	</vehicle>
	<vehicle depart="0.1" departLane="1" departPos="44.093284225934404" departSpeed="14.731" id="601" type="passenger">
		<route edges="4"/>
	</vehicle>
	<vehicle depart="0.1" departLane="3" departPos="45.24482602869454" departSpeed="15.2339" id="602" type="passenger">
		<route edges="4"/>
	</vehicle>
	<vehicle depart="0.1" departLane="2" departPos="51.048027688432484" departSpeed="15.3071" id="603" type="passenger">
		<route edges="4"/>
	</vehicle>
	<vehicle depart="0.1" departLane="5" departPos="47.212835209688244" departSpeed="13.7099" id="605" type="passenger">
		<route edges="4"/>
	</vehicle>
	<vehicle depart="0.1" departLane="5" departPos="32.880399920317686" departSpeed="13.332" id="610" type="passenger">
		<route edges="4"/>
	</vehicle>
	<vehicle depart="0.1" departLane="2" departPos="24.83877934982648" departSpeed="13.716" id="611" type="passenger">
		<route edges="4"/>
	</vehicle>
	<vehicle depart="0.1" departLane="1" departPos="27.276310715265915" departSpeed="12.2347" id="612" type="passenger">
		<route edges="4"/>
	</vehicle>
	<vehicle depart="0.1" departLane="5" departPos="11.232705394736225" departSpeed="13.716" id="615" type="passenger">
		<route edges="4"/>
	</vehicle>
	<vehicle depart="0.1" departLane="3" departPos="10.951257216537467" departSpeed="13.6855" id="616" type="passenger">
		<route edges="4"/>
	</vehicle>
	<vehicle depart="0.1" departLane="1" departPos="18.292501048311074" departSpeed="12.192" id="617" type="passenger">
		<route edges="4"/>
	</vehicle>
	<vehicle depart="0.1" departLane="3" departPos="57.203005340402726" departSpeed="13.7709" id="618" type="passenger">
		<route edges="8 4"/>
	</vehicle>
	<vehicle depart="0.1" departLane="4" departPos="57.66995054398856" departSpeed="14.7523" id="619" type="passenger">
		<route edges="8 4"/>
	</vehicle>
	<vehicle depart="0.1" departLane="2" departPos="56.50680877796992" departSpeed="12.2438" id="623" type="passenger">
		<route edges="8 4"/>
	</vehicle>
	<vehicle depart="0.1" departLane="4" departPos="23.236285244192025" departSpeed="13.7008" id="624" type="passenger">
		<route edges="8 4"/>
	</vehicle>
	<vehicle depart="0.1" departLane="3" departPos="31.541492472029134" departSpeed="12.189" id="629" type="passenger">
		<route edges="8 4"/>
	</vehicle>
	<vehicle depart="0.1" departLane="2" departPos="35.421597319457746" departSpeed="12.189" id="630" type="passenger">
		<route edges="8 4"/>
	</vehicle>
	<vehicle depart="0.1" departLane="0" departPos="50.03673441524915" departSpeed="11.4971" id="631" type="passenger">
		<route edges="8 4"/>
	</vehicle>
	<vehicle depart="0.1" departLane="1" departPos="30.67048273258609" departSpeed="12.445" id="632" type="passenger">
		<route edges="8 4"/>
	</vehicle>
	<vehicle depart="0.1" departLane="0" departPos="29.641391070077617" departSpeed="10.5186" id="633" type="passenger">
		<route edges="8 4"/>
	</vehicle>
	<vehicle depart="0.1" departLane="1" departPos="15.425838857108038" departSpeed="12.701" id="635" type="passenger">
		<route edges="8 8 4"/>
	</vehicle>
	<vehicle depart="0.1" departLane="3" departPos="0" departSpeed="11.9908" id="636" type="passenger">
		<route edges="8 4"/>
	</vehicle>
	<vehicle depart="0.1" departLane="0" departPos="5.232963483123378" departSpeed="11.8598" id="641" type="passenger">
		<route edges="8 4"/>
	</vehicle>
	<vehicle depart="0.1" departLane="2" departPos="0" departSpeed="11.4513" id="646" type="passenger">
		<route edges="8 4"/>
	</vehicle>
</routes>
