<?xml version="1.0" encoding="UTF-8"?>

<!-- generated on Fri Dec 18 15:54:40 2020 by Eclipse SUMO netconvert Version 1.8.0
<configuration xmlns:xsi="http://www.w3.org/2001/XMLSchema-instance" xsi:noNamespaceSchemaLocation="http://sumo.dlr.de/xsd/netconvertConfiguration.xsd">

    <input>
        <node-files value="./converted_scenarios/NGSIM/US101/USA_US101-29_1_I-1-1/nodes.net.xml"/>
        <edge-files value="./converted_scenarios/NGSIM/US101/USA_US101-29_1_I-1-1/edges.net.xml"/>
        <connection-files value="./converted_scenarios/NGSIM/US101/USA_US101-29_1_I-1-1/_connections.net.xml"/>
        <tllogic-files value="./converted_scenarios/NGSIM/US101/USA_US101-29_1_I-1-1/_tll.net.xml"/>
    </input>

    <output>
        <output-file value="./converted_scenarios/NGSIM/US101/USA_US101-29_1_I-1-1/USA_US101-29_1_I-1-1.net.xml"/>
    </output>

    <processing>
        <plain.extend-edge-shape value="true"/>
        <geometry.remove.keep-edges.explicit value="true"/>
        <geometry.avoid-overlap value="true"/>
        <offset.disable-normalization value="true"/>
    </processing>

    <junctions>
        <no-turnarounds value="true"/>
        <junctions.internal-link-detail value="20"/>
    </junctions>

    <report>
        <aggregate-warnings value="5"/>
    </report>

    <random_number>
        <seed value="1234"/>
    </random_number>

</configuration>
-->

<net version="1.6" junctionCornerDetail="5" junctionLinkDetail="20" limitTurnSpeed="5.50" xmlns:xsi="http://www.w3.org/2001/XMLSchema-instance" xsi:noNamespaceSchemaLocation="http://sumo.dlr.de/xsd/net_file.xsd">

    <location netOffset="0.00,0.00" convBoundary="-40.52,-50.97,73.08,44.46" origBoundary="-40.52,-57.60,78.68,49.48" projParameter="!"/>

    <edge id=":2_0" function="internal">
        <lane id=":2_0_0" index="0" disallow="bus rail_fast" speed="36.11" length="29.71" width="3.73" shape="-13.58,12.77 9.02,-6.51"/>
    </edge>
    <edge id=":2_1" function="internal">
        <lane id=":2_1_0" index="0" disallow="bus truck rail_fast" speed="36.11" length="3.00" width="3.50" shape="9.21,-1.71 11.48,-3.69"/>
        <lane id=":2_1_1" index="1" disallow="bus truck rail_fast" speed="36.11" length="3.00" width="3.22" shape="11.49,0.92 13.72,-1.10"/>
        <lane id=":2_1_2" index="2" disallow="bus rail_fast" speed="36.11" length="3.00" width="3.12" shape="13.69,3.44 15.91,1.42"/>
        <lane id=":2_1_3" index="3" disallow="bus truck rail_fast" speed="36.11" length="3.00" width="3.27" shape="15.88,5.95 18.15,4.00"/>
        <lane id=":2_1_4" index="4" disallow="bus truck rail_fast" speed="36.11" length="3.00" width="3.48" shape="18.10,8.51 20.39,6.57"/>
    </edge>

    <edge id="4" from="2" to="3" priority="1" spreadType="center" length="79.01">
        <lane id="4_0" index="0" disallow="bus rail_fast" speed="36.11" length="79.01" width="3.73" acceleration="1" customShape="1" shape="9.02,-6.51 10.04,-7.38 10.76,-8.03 13.43,-10.34 14.15,-10.99 16.86,-13.36 17.58,-14.01 20.30,-16.40 21.02,-17.04 23.69,-19.36 24.41,-20.00 25.14,-20.63 27.14,-22.38 27.87,-23.02 30.55,-25.38 31.27,-26.03 34.03,-28.43 34.75,-29.08 37.32,-31.30 38.04,-31.95 40.76,-34.28 41.48,-34.93 44.33,-37.44 45.05,-38.08 47.71,-40.44 48.43,-41.08 51.24,-43.50 51.97,-44.15 54.60,-46.45 55.32,-47.10 58.03,-49.47 58.67,-50.05 58.76,-50.12 61.58,-52.50 62.30,-53.14 64.92,-55.50 65.65,-56.15 67.33,-57.61"/>
        <lane id="4_1" index="1" disallow="bus truck rail_fast" speed="36.11" length="79.01" width="3.50" customShape="1" shape="11.48,-3.69 12.53,-4.62 13.24,-5.28 13.88,-5.85 15.72,-7.37 16.38,-7.93 16.49,-8.02 17.08,-8.52 17.26,-8.68 19.36,-10.58 20.08,-11.24 20.17,-11.32 22.73,-13.58 23.41,-14.19 26.14,-16.55 26.81,-17.15 27.34,-17.61 29.61,-19.65 30.25,-20.24 36.41,-25.54 37.08,-26.13 37.18,-26.21 38.09,-26.98 39.82,-28.53 40.54,-29.19 41.05,-29.64 43.20,-31.48 43.86,-32.06 46.74,-34.59 47.43,-35.21 49.09,-36.67 50.20,-37.68 50.91,-38.34 52.07,-39.36 53.66,-40.72 54.31,-41.29 57.00,-43.63 57.67,-44.22 60.07,-46.29 60.48,-46.65 61.21,-47.30 63.15,-48.93 64.04,-49.68 64.71,-50.28 67.30,-52.62 68.05,-53.28 69.78,-54.79"/>
        <lane id="4_2" index="2" disallow="bus truck rail_fast" speed="36.11" length="79.01" width="3.22" customShape="1" shape="13.72,-1.10 14.10,-1.46 15.98,-3.13 16.14,-3.26 19.51,-6.03 22.04,-8.27 22.15,-8.37 22.52,-8.71 25.14,-11.08 29.60,-14.93 32.47,-17.48 32.59,-17.58 33.22,-18.13 33.30,-18.20 36.20,-20.76 40.38,-24.32 43.23,-26.86 43.32,-26.94 44.33,-27.81 47.28,-30.47 51.39,-33.99 54.25,-36.53 54.36,-36.63 55.47,-37.58 58.43,-40.23 62.40,-43.70 65.37,-46.32 66.49,-47.31 69.47,-49.91 72.05,-52.16"/>
        <lane id="4_3" index="3" disallow="bus rail_fast" speed="36.11" length="79.01" width="3.12" customShape="1" shape="15.91,1.42 16.28,1.09 16.38,1.00 19.26,-1.48 22.22,-4.11 24.35,-5.92 27.19,-8.43 27.31,-8.54 30.32,-11.10 33.28,-13.73 35.42,-15.58 38.28,-18.17 38.37,-18.25 41.44,-20.90 44.39,-23.54 46.43,-25.27 49.30,-27.78 49.43,-27.90 52.56,-30.53 55.52,-33.17 57.69,-35.03 60.54,-37.60 63.80,-40.47 66.72,-43.14 68.61,-44.79 71.63,-47.41 74.23,-49.65"/>
        <lane id="4_4" index="4" disallow="bus truck rail_fast" speed="36.11" length="79.01" width="3.27" customShape="1" shape="18.15,4.00 21.34,1.25 21.53,1.07 24.20,-1.42 24.39,-1.58 32.53,-8.52 32.70,-8.68 35.48,-11.27 35.64,-11.41 43.65,-18.29 46.51,-20.95 54.76,-28.00 54.88,-28.11 57.69,-30.73 57.82,-30.85 65.97,-37.85 66.09,-37.95 68.83,-40.51 76.44,-47.11"/>
        <lane id="4_5" index="5" disallow="bus truck rail_fast" speed="36.11" length="79.01" width="3.48" customShape="1" shape="20.39,6.57 23.60,3.87 23.83,3.67 23.95,3.55 26.56,1.12 26.92,0.81 34.99,-6.12 35.23,-6.33 35.33,-6.43 37.94,-8.86 38.31,-9.18 45.94,-15.62 46.18,-15.82 46.30,-15.94 48.91,-18.36 49.25,-18.67 57.15,-25.60 57.40,-25.83 57.48,-25.90 60.09,-28.33 60.45,-28.65 68.21,-35.24 68.45,-35.44 68.57,-35.55 71.18,-37.98 71.52,-38.29 78.68,-44.53"/>
    </edge>
    <edge id="5" from="4" to="2" priority="1" spreadType="center" length="63.08">
        <lane id="5_0" index="0" disallow="rail_fast" speed="36.11" length="63.08" width="3.64" customShape="1" shape="-40.52,34.93 -37.47,32.45 -29.75,26.16 -28.09,24.80 -19.54,17.69 -13.58,12.77"/>
    </edge>
    <edge id="8" from="1" to="2" priority="1" spreadType="center" length="62.61">
        <lane id="8_0" index="0" disallow="bus truck rail_fast" speed="36.11" length="62.61" width="3.57" customShape="1" shape="-36.41,39.42 -36.18,39.20 -32.66,35.96 -29.76,33.27 -21.95,26.15 -21.37,25.61 -19.00,23.44 -11.70,16.82 -10.90,16.09 -7.98,13.38 -4.92,10.63 -0.10,6.46 2.84,3.81 4.39,2.47 9.21,-1.71"/>
        <lane id="8_1" index="1" disallow="bus rail_fast" speed="36.11" length="62.61" width="3.25" customShape="1" shape="-34.04,42.01 -32.43,40.52 -30.28,38.53 -29.52,37.83 -27.40,35.86 -21.74,30.74 -19.54,28.72 -18.85,28.07 -16.67,26.08 -10.54,20.57 -8.47,18.67 -7.64,17.90 -5.61,16.05 0.22,10.93 2.25,9.09 3.10,8.30 5.10,6.49 11.22,1.17 11.49,0.92"/>
        <lane id="8_2" index="2" disallow="rail_fast" speed="36.11" length="62.61" width="3.19" customShape="1" shape="-31.81,44.45 -30.18,42.98 -27.28,40.32 -24.67,37.95 -21.76,35.26 -19.51,33.22 -16.61,30.55 -13.88,28.09 -10.95,25.42 -8.31,23.05 -5.41,20.40 -2.84,18.10 0.09,15.44 2.35,13.47 5.28,10.87 8.04,8.48 10.98,5.83 13.42,3.68 13.69,3.44"/>
        <lane id="8_3" index="3" disallow="bus rail_fast" speed="36.11" length="62.61" width="3.21" customShape="1" shape="-29.56,46.91 -22.66,40.65 -22.39,40.41 -19.78,37.97 -19.52,37.73 -11.81,30.70 -11.64,30.54 -8.93,28.01 -8.79,27.89 -0.78,20.72 -0.61,20.56 2.09,18.04 2.21,17.93 10.25,11.01 10.34,10.93 13.19,8.27 13.31,8.17 15.88,5.95"/>
        <lane id="8_4" index="4" disallow="rail_fast" speed="36.11" length="62.61" width="3.48" customShape="1" shape="-27.20,49.48 -20.34,43.20 -20.05,42.94 -17.43,40.49 -17.13,40.21 -9.51,33.22 -9.21,32.95 -6.60,30.51 -6.27,30.22 1.50,23.28 1.80,23.01 4.43,20.55 4.77,20.25 12.62,13.39 12.91,13.12 15.56,10.66 15.93,10.34 18.10,8.51"/>
    </edge>

    <junction id="1" type="dead_end" x="-31.80" y="44.46" incLanes="" intLanes="" shape="-26.03,50.77 -37.62,38.10"/>
    <junction id="2" type="priority" x="14.81" y="2.42" incLanes="5_0 8_0 8_1 8_2 8_3 8_4" intLanes=":2_0_0 :2_1_0 :2_1_1 :2_1_2 :2_1_3 :2_1_4" shape="21.53,7.89 7.80,-7.92 -14.78,11.40 -12.39,14.14 8.04,-3.06 19.24,9.82">
        <request index="0" response="000000" foes="000000" cont="0"/>
        <request index="1" response="000000" foes="000000" cont="0"/>
        <request index="2" response="000000" foes="000000" cont="0"/>
        <request index="3" response="000000" foes="000000" cont="0"/>
        <request index="4" response="000000" foes="000000" cont="0"/>
        <request index="5" response="000000" foes="000000" cont="0"/>
    </junction>
    <junction id="3" type="dead_end" x="73.08" y="-50.97" incLanes="4_0 4_1 4_2 4_3 4_4 4_5" intLanes="" shape="66.11,-59.02 79.80,-43.21"/>
    <junction id="4" type="dead_end" x="-40.52" y="34.93" incLanes="" intLanes="" shape="-39.37,36.34 -41.67,33.52"/>

    <connection from="5" to="4" fromLane="0" toLane="0" contPos="-4.00" via=":2_0_0" dir="s" state="M"/>
    <connection from="8" to="4" fromLane="0" toLane="1" contPos="-4.00" via=":2_1_0" dir="s" state="M"/>
    <connection from="8" to="4" fromLane="1" toLane="2" contPos="-4.00" via=":2_1_1" dir="s" state="M"/>
    <connection from="8" to="4" fromLane="2" toLane="3" contPos="-4.00" via=":2_1_2" dir="s" state="M"/>
    <connection from="8" to="4" fromLane="3" toLane="4" contPos="-4.00" via=":2_1_3" dir="s" state="M"/>
    <connection from="8" to="4" fromLane="4" toLane="5" contPos="-4.00" via=":2_1_4" dir="s" state="M"/>

    <connection from=":2_0" to="4" fromLane="0" toLane="0" dir="s" state="M"/>
    <connection from=":2_1" to="4" fromLane="0" toLane="1" dir="s" state="M"/>
    <connection from=":2_1" to="4" fromLane="1" toLane="2" dir="s" state="M"/>
    <connection from=":2_1" to="4" fromLane="2" toLane="3" dir="s" state="M"/>
    <connection from=":2_1" to="4" fromLane="3" toLane="4" dir="s" state="M"/>
    <connection from=":2_1" to="4" fromLane="4" toLane="5" dir="s" state="M"/>

</net>
