<routes>
	<vehicle depart="0.1" departLane="0" departPos="69.72012386505844" departSpeed="0.20474078" id="31" type="passenger">
		<route edges="89736 89589"/>
	</vehicle>
	<vehicle depart="0.1" departLane="0" departPos="54.460124739441" departSpeed="0.72226626" id="37" type="passenger">
		<route edges="89736 89596"/>
	</vehicle>
	<vehicle depart="0.1" departLane="0" departPos="28.892166666597134" departSpeed="0.0002844685" id="317" type="passenger">
		<route edges=":35_2 89589"/>
	</vehicle>
	<vehicle depart="0.1" departLane="0" departPos="20.529677422736757" departSpeed="0.0" id="319" type="passenger">
		<route edges="89750 89596"/>
	</vehicle>
	<vehicle depart="0.1" departLane="0" departPos="67.43490734013464" departSpeed="14.840048" id="342" type="passenger">
		<route edges=":34_1 89590 89596 89453"/>
	</vehicle>
	<vehicle depart="0.1" departLane="0" departPos="12.609998793311073" departSpeed="3.6018481" id="345" type="passenger">
		<route edges=":34_1 89590"/>
	</vehicle>
</routes>
