<!-- generated on Tue Feb  9 22:01:35 2021 by Eclipse SUMO netconvert Version 1.8.0
<configuration xmlns:xsi="http://www.w3.org/2001/XMLSchema-instance" xsi:noNamespaceSchemaLocation="http://sumo.dlr.de/xsd/netconvertConfiguration.xsd">

    <input>
        <node-files value="./converted_scenarios/scenario-factory/ESP_Cambre-5_3_I-1-1/ESP_Cambre-5_3_I-1-1.nod.xml"/>
        <edge-files value="./converted_scenarios/scenario-factory/ESP_Cambre-5_3_I-1-1/ESP_Cambre-5_3_I-1-1.edg.xml"/>
        <connection-files value="./converted_scenarios/scenario-factory/ESP_Cambre-5_3_I-1-1/ESP_Cambre-5_3_I-1-1.con.xml"/>
        <tllogic-files value="./converted_scenarios/scenario-factory/ESP_Cambre-5_3_I-1-1/ESP_Cambre-5_3_I-1-1.tll.xml"/>
        <type-files value="/home/zen/commonroad-interactive-benchmarks/install/commonroad-map-tool/crmapconverter/sumo_map/templates/DEU.typ.xml"/>
    </input>

    <output>
        <output-file value="./converted_scenarios/scenario-factory/ESP_Cambre-5_3_I-1-1/ESP_Cambre-5_3_I-1-1.net.xml"/>
    </output>

    <processing>
        <geometry.remove.keep-edges.explicit value="true"/>
        <geometry.avoid-overlap value="true"/>
        <offset.disable-normalization value="true"/>
    </processing>

    <junctions>
        <no-turnarounds value="true"/>
        <junctions.internal-link-detail value="20"/>
    </junctions>

    <report>
        <aggregate-warnings value="5"/>
    </report>

    <random_number>
        <seed value="1234"/>
    </random_number>

</configuration>
--><net xmlns:xsi="http://www.w3.org/2001/XMLSchema-instance" version="1.6" junctionCornerDetail="5" junctionLinkDetail="20" limitTurnSpeed="5.50" xsi:noNamespaceSchemaLocation="http://sumo.dlr.de/xsd/net_file.xsd">

    <location netOffset="0.00,0.00" convBoundary="-930.90,-623.61,-760.91,-404.13" origBoundary="-930.90,-623.61,-760.91,-404.13" projParameter="!"/>

    <type id="highway.bridleway" priority="1" speed="2.78" allow="pedestrian" oneway="1" width="2.00"/>
    <type id="highway.bus_guideway" priority="1" speed="27.78" allow="bus" oneway="1"/>
    <type id="highway.cycleway" priority="1" speed="8.33" allow="bicycle" oneway="0" width="1.00"/>
    <type id="highway.footway" priority="1" speed="2.78" allow="pedestrian" oneway="1" width="2.00"/>
    <type id="highway.ford" priority="1" speed="2.78" allow="army" oneway="0"/>
    <type id="highway.living_street" priority="2" speed="2.78" disallow="tram rail_urban rail rail_electric rail_fast ship" oneway="0"/>
    <type id="highway.motorway" priority="14" speed="39.44" allow="private emergency authority army vip passenger hov taxi bus coach delivery truck trailer motorcycle evehicle custom1 custom2" oneway="1"/>
    <type id="highway.motorway_link" priority="9" speed="22.22" allow="private emergency authority army vip passenger hov taxi bus coach delivery truck trailer motorcycle evehicle custom1 custom2" oneway="1"/>
    <type id="highway.path" priority="1" speed="2.78" allow="pedestrian bicycle" oneway="0" width="2.00"/>
    <type id="highway.pedestrian" priority="1" speed="2.78" allow="pedestrian" oneway="1" width="2.00"/>
    <type id="highway.primary" priority="12" speed="27.78" disallow="pedestrian tram rail_urban rail rail_electric rail_fast ship" oneway="0"/>
    <type id="highway.primary_link" priority="7" speed="22.22" disallow="pedestrian tram rail_urban rail rail_electric rail_fast ship" oneway="0"/>
    <type id="highway.raceway" priority="15" speed="83.33" allow="vip" oneway="0"/>
    <type id="highway.residential" priority="3" speed="13.89" disallow="pedestrian tram rail_urban rail rail_electric rail_fast ship" oneway="0"/>
    <type id="highway.secondary" priority="11" speed="27.78" disallow="pedestrian tram rail_urban rail rail_electric rail_fast ship" oneway="0"/>
    <type id="highway.secondary_link" priority="6" speed="22.22" disallow="pedestrian tram rail_urban rail rail_electric rail_fast ship" oneway="0"/>
    <type id="highway.service" priority="1" speed="5.56" allow="pedestrian delivery bicycle" oneway="0"/>
    <type id="highway.stairs" priority="1" speed="1.39" allow="pedestrian" oneway="1" width="2.00"/>
    <type id="highway.step" priority="1" speed="1.39" allow="pedestrian" oneway="1" width="2.00"/>
    <type id="highway.steps" priority="1" speed="1.39" allow="pedestrian" oneway="1" width="2.00"/>
    <type id="highway.tertiary" priority="10" speed="22.22" disallow="pedestrian tram rail_urban rail rail_electric rail_fast ship" oneway="0"/>
    <type id="highway.tertiary_link" priority="5" speed="22.22" disallow="pedestrian tram rail_urban rail rail_electric rail_fast ship" oneway="0"/>
    <type id="highway.track" priority="1" speed="5.56" allow="pedestrian motorcycle moped bicycle" oneway="0"/>
    <type id="highway.trunk" priority="13" speed="27.78" disallow="pedestrian bicycle tram rail_urban rail rail_electric rail_fast ship" oneway="0"/>
    <type id="highway.trunk_link" priority="8" speed="22.22" disallow="pedestrian bicycle tram rail_urban rail rail_electric rail_fast ship" oneway="0"/>
    <type id="highway.unclassified" priority="4" speed="13.89" disallow="pedestrian tram rail_urban rail rail_electric rail_fast ship" oneway="0"/>
    <type id="highway.unsurfaced" priority="1" speed="8.33" disallow="tram rail_urban rail rail_electric rail_fast ship" oneway="0"/>
    <type id="railway.highspeed" priority="21" speed="69.44" allow="rail_fast" oneway="1"/>
    <type id="railway.light_rail" priority="19" speed="27.78" allow="rail_urban" oneway="1"/>
    <type id="railway.preserved" priority="16" speed="27.78" allow="rail" oneway="1"/>
    <type id="railway.rail" priority="20" speed="44.44" allow="rail" oneway="1"/>
    <type id="railway.subway" priority="18" speed="27.78" allow="rail_urban" oneway="1"/>
    <type id="railway.tram" priority="17" speed="13.89" allow="tram" oneway="1"/>

    <edge id=":33_0" function="internal">
        <lane id=":33_0_0" index="0" disallow="pedestrian tram rail_urban rail rail_electric rail_fast ship" speed="13.32" length="30.85" width="3.50" shape="-846.90,-453.37 -849.84,-454.62 -852.87,-455.63 -855.98,-456.32 -858.10,-456.58 -860.22,-456.64 -862.34,-456.49 -864.44,-456.11 -866.47,-455.50 -868.43,-454.66 -870.28,-453.62 -872.02,-452.39 -873.64,-451.01 -875.14,-449.50"/>
    </edge>
    <edge id=":33_1" function="internal">
        <lane id=":33_1_0" index="0" disallow="pedestrian tram rail_urban rail rail_electric rail_fast ship" speed="12.15" length="34.77" width="3.50" shape="-846.90,-453.37 -849.28,-454.61 -851.53,-456.06 -853.59,-457.76 -854.53,-458.71 -855.39,-459.73 -856.16,-460.82 -856.83,-461.98 -857.39,-463.20 -857.83,-464.46 -858.15,-465.76 -858.34,-467.08 -858.43,-468.42 -858.29,-471.09 -857.80,-473.72 -857.05,-476.28 -855.53,-480.00 -854.33,-482.38"/>
    </edge>
    <edge id=":33_2" function="internal">
        <lane id=":33_2_0" index="0" disallow="pedestrian tram rail_urban rail rail_electric rail_fast ship" speed="11.14" length="29.05" width="3.50" shape="-851.21,-480.80 -852.30,-478.64 -853.64,-475.39 -854.29,-473.21 -854.71,-471.00 -854.84,-468.77 -854.78,-467.72 -854.64,-466.66 -854.40,-465.63 -854.06,-464.63 -853.63,-463.66 -853.11,-462.74 -852.50,-461.86 -851.81,-461.03 -851.08,-460.27 -849.35,-458.83 -847.45,-457.60 -845.42,-456.54"/>
    </edge>
    <edge id=":33_3" function="internal">
        <lane id=":33_3_0" index="0" disallow="pedestrian tram rail_urban rail rail_electric rail_fast ship" speed="36.11" length="39.49" width="3.50" shape="-851.20,-480.80 -851.77,-479.78 -854.46,-475.32 -857.98,-470.16 -862.37,-464.38 -868.29,-457.21 -875.14,-449.50"/>
    </edge>
    <edge id=":33_4" function="internal">
        <lane id=":33_4_0" index="0" disallow="pedestrian tram rail_urban rail rail_electric rail_fast ship" speed="36.11" length="38.51" width="3.50" shape="-877.70,-451.88 -870.98,-459.44 -865.16,-466.48 -860.88,-472.14 -857.44,-477.16 -854.82,-481.50 -854.33,-482.38"/>
    </edge>
    <edge id=":33_5" function="internal">
        <lane id=":33_5_0" index="0" disallow="pedestrian tram rail_urban rail rail_electric rail_fast ship" speed="14.22" length="35.28" width="3.50" shape="-877.70,-451.88 -876.01,-453.58 -874.17,-455.17 -872.17,-456.59 -870.03,-457.80 -867.76,-458.79 -865.39,-459.52 -862.96,-459.98 -860.50,-460.17 -858.05,-460.11 -855.62,-459.82 -852.10,-459.05 -848.69,-457.93 -845.42,-456.54"/>
    </edge>
    <edge id=":34_0" function="internal">
        <lane id=":34_0_0" index="0" disallow="pedestrian tram rail_urban rail rail_electric rail_fast ship" speed="36.11" length="72.02" width="3.50" shape="-809.68,-613.06 -819.44,-578.40 -829.20,-543.74"/>
    </edge>
    <edge id=":34_1" function="internal">
        <lane id=":34_1_0" index="0" disallow="pedestrian tram rail_urban rail rail_electric rail_fast ship" speed="36.11" length="78.39" width="3.50" shape="-821.91,-621.49 -824.04,-612.67 -824.87,-607.64 -825.52,-601.56 -825.89,-594.44 -825.95,-584.24 -825.90,-569.97 -826.16,-562.84 -826.70,-556.75 -827.42,-551.70 -828.44,-546.71 -829.20,-543.74"/>
    </edge>
    <edge id=":34_2" function="internal">
        <lane id=":34_2_0" index="0" disallow="pedestrian tram rail_urban rail rail_electric rail_fast ship" speed="36.11" length="78.34" width="3.45" shape="-832.58,-544.68 -831.83,-547.57 -830.83,-552.47 -830.12,-557.41 -829.60,-563.41 -829.34,-570.46 -829.39,-584.70 -829.33,-594.94 -828.96,-602.15 -828.30,-608.33 -827.45,-613.46 -825.27,-622.37"/>
    </edge>
    <edge id=":34_3" function="internal">
        <lane id=":34_3_0" index="0" disallow="pedestrian tram rail_urban rail rail_electric rail_fast ship" speed="36.11" length="72.09" width="3.50" shape="-832.58,-544.68 -822.80,-579.37 -813.03,-614.07"/>
    </edge>
    <edge id=":35_0" function="internal">
        <lane id=":35_0_0" index="0" disallow="pedestrian tram rail_urban rail rail_electric rail_fast ship" speed="11.56" length="30.48" width="3.50" shape="-820.97,-512.33 -823.05,-512.99 -825.18,-513.43 -827.35,-513.62 -829.52,-513.48 -830.59,-513.28 -831.64,-512.99 -832.66,-512.61 -833.64,-512.14 -834.58,-511.59 -835.47,-510.97 -837.11,-509.54 -838.56,-507.92 -839.83,-506.15 -840.95,-504.28 -842.38,-501.35 -843.58,-498.30"/>
    </edge>
    <edge id=":35_1" function="internal">
        <lane id=":35_1_0" index="0" disallow="pedestrian tram rail_urban rail rail_electric rail_fast ship" speed="36.11" length="38.59" width="3.50" shape="-820.97,-512.33 -825.92,-513.97 -831.97,-515.56 -841.17,-517.47 -851.39,-519.54 -857.46,-521.06 -858.46,-521.34"/>
    </edge>
    <edge id=":35_2" function="internal">
        <lane id=":35_2_0" index="0" disallow="pedestrian tram rail_urban rail rail_electric rail_fast ship" speed="12.50" length="33.89" width="3.50" shape="-820.97,-512.33 -823.39,-513.32 -825.71,-514.50 -827.90,-515.91 -829.92,-517.56 -831.68,-519.48 -832.45,-520.53 -833.14,-521.64 -833.73,-522.80 -834.64,-525.24 -835.17,-527.79 -835.36,-530.39 -835.26,-532.99 -834.92,-535.58 -834.05,-539.40"/>
    </edge>
    <edge id=":35_3" function="internal">
        <lane id=":35_3_0" index="0" disallow="pedestrian tram rail_urban rail rail_electric rail_fast ship" speed="11.51" length="28.60" width="3.50" shape="-830.68,-538.46 -831.45,-535.10 -831.74,-532.88 -831.83,-530.66 -831.67,-528.47 -831.24,-526.36 -830.50,-524.33 -830.03,-523.41 -829.47,-522.51 -828.87,-521.67 -827.40,-520.07 -825.72,-518.68 -823.86,-517.49 -821.86,-516.47 -819.78,-515.62"/>
    </edge>
    <edge id=":35_4" function="internal">
        <lane id=":35_4_0" index="0" disallow="pedestrian tram rail_urban rail rail_electric rail_fast ship" speed="36.11" length="42.19" width="3.50" shape="-830.68,-538.46 -834.47,-525.62 -839.21,-510.95 -843.58,-498.30"/>
    </edge>
    <edge id=":35_5" function="internal">
        <lane id=":35_5_0" index="0" disallow="pedestrian tram rail_urban rail rail_electric rail_fast ship" speed="12.68" length="37.39" width="3.50" shape="-830.68,-538.46 -831.84,-534.89 -833.32,-531.45 -834.57,-529.21 -836.04,-527.09 -837.77,-525.14 -839.75,-523.44 -840.87,-522.68 -842.03,-522.02 -843.24,-521.46 -844.52,-520.99 -847.06,-520.37 -849.66,-520.11 -852.25,-520.17 -854.79,-520.49 -858.46,-521.34"/>
    </edge>
    <edge id=":35_6" function="internal">
        <lane id=":35_6_0" index="0" disallow="pedestrian tram rail_urban rail rail_electric rail_fast ship" speed="11.72" length="31.78" width="3.50" shape="-857.49,-524.70 -854.29,-523.96 -852.11,-523.69 -849.92,-523.65 -847.74,-523.87 -845.62,-524.41 -844.60,-524.80 -843.61,-525.26 -842.66,-525.81 -841.75,-526.43 -840.10,-527.87 -838.66,-529.52 -837.42,-531.32 -836.36,-533.24 -835.06,-536.26 -834.05,-539.40"/>
    </edge>
    <edge id=":35_7" function="internal">
        <lane id=":35_7_0" index="0" disallow="pedestrian tram rail_urban rail rail_electric rail_fast ship" speed="36.11" length="38.82" width="3.50" shape="-857.49,-524.70 -856.52,-524.43 -850.49,-522.92 -840.27,-520.85 -831.00,-518.92 -824.84,-517.29 -819.78,-515.62"/>
    </edge>
    <edge id=":35_8" function="internal">
        <lane id=":35_8_0" index="0" disallow="pedestrian tram rail_urban rail rail_electric rail_fast ship" speed="11.94" length="34.72" width="3.50" shape="-857.49,-524.70 -853.70,-523.40 -851.27,-522.28 -848.97,-520.93 -846.86,-519.31 -845.89,-518.38 -845.01,-517.38 -844.22,-516.30 -843.53,-515.16 -842.95,-513.96 -842.49,-512.70 -842.15,-511.42 -841.91,-510.10 -841.76,-507.44 -841.96,-504.77 -842.44,-502.15 -843.15,-499.57 -843.58,-498.30"/>
    </edge>
    <edge id=":35_9" function="internal">
        <lane id=":35_9_0" index="0" disallow="pedestrian tram rail_urban rail rail_electric rail_fast ship" speed="10.93" length="28.89" width="3.50" shape="-846.87,-499.48 -846.51,-500.56 -845.89,-502.80 -845.48,-505.03 -845.31,-507.25 -845.45,-509.47 -845.63,-510.50 -845.91,-511.53 -846.28,-512.52 -846.74,-513.47 -847.28,-514.38 -847.92,-515.23 -848.63,-516.04 -849.39,-516.77 -851.16,-518.13 -853.10,-519.26 -855.16,-520.21 -858.46,-521.34"/>
    </edge>
    <edge id=":35_10" function="internal">
        <lane id=":35_10_0" index="0" disallow="pedestrian tram rail_urban rail rail_electric rail_fast ship" speed="36.11" length="41.93" width="3.50" shape="-846.87,-499.48 -842.54,-512.05 -837.82,-526.65 -834.05,-539.40"/>
    </edge>
    <edge id=":35_11" function="internal">
        <lane id=":35_11_0" index="0" disallow="pedestrian tram rail_urban rail rail_electric rail_fast ship" speed="12.54" length="36.07" width="3.50" shape="-846.87,-499.48 -845.51,-502.92 -843.87,-506.26 -842.56,-508.43 -841.05,-510.48 -839.30,-512.39 -837.32,-514.06 -836.20,-514.82 -835.03,-515.47 -833.82,-516.02 -832.55,-516.47 -831.25,-516.80 -829.91,-517.03 -827.30,-517.16 -824.71,-516.92 -822.19,-516.39 -819.78,-515.62"/>
    </edge>

    <edge id="89434" from="34" to="25" priority="3" type="highway.residential" spreadType="center" length="1.28" shape="-824.00,-591.80 -824.95,-623.61">
        <lane id="89434_0" index="0" disallow="pedestrian tram rail_urban rail rail_electric rail_fast ship" speed="36.11" length="1.28" width="3.45" customShape="1" shape="-825.27,-622.37 -824.95,-623.61"/>
    </edge>
    <edge id="89435" from="31" to="34" priority="3" type="highway.residential" spreadType="center" length="1.24" shape="-821.60,-622.69 -820.53,-591.91">
        <lane id="89435_0" index="0" disallow="pedestrian tram rail_urban rail rail_electric rail_fast ship" speed="36.11" length="1.24" width="3.50" customShape="1" shape="-821.60,-622.69 -821.91,-621.49"/>
    </edge>
    <edge id="89453" from="33" to="19" priority="3" type="highway.residential" spreadType="center" length="50.28" shape="-857.71,-463.99 -799.92,-435.15">
        <lane id="89453_0" index="0" disallow="pedestrian tram rail_urban rail rail_electric rail_fast ship" speed="36.11" length="50.28" width="3.50" customShape="1" shape="-845.42,-456.54 -822.67,-445.84 -799.92,-435.15"/>
    </edge>
    <edge id="89454" from="27" to="33" priority="3" type="highway.residential" spreadType="center" length="50.28" shape="-801.41,-431.98 -859.28,-460.86">
        <lane id="89454_0" index="0" disallow="pedestrian tram rail_urban rail rail_electric rail_fast ship" speed="36.11" length="50.28" width="3.50" customShape="1" shape="-801.41,-431.98 -824.16,-442.68 -846.91,-453.37"/>
    </edge>
    <edge id="89586" from="34" to="26" priority="3" type="highway.residential" spreadType="center" length="5.29" shape="-823.90,-592.60 -811.47,-619.12">
        <lane id="89586_0" index="0" disallow="pedestrian tram rail_urban rail rail_electric rail_fast ship" speed="36.11" length="5.29" width="3.50" customShape="1" shape="-813.03,-614.07 -812.98,-614.22 -812.95,-614.34 -811.47,-619.12"/>
    </edge>
    <edge id="89587" from="32" to="34" priority="3" type="highway.residential" spreadType="center" length="5.27" shape="-808.13,-618.09 -820.74,-591.12">
        <lane id="89587_0" index="0" disallow="pedestrian tram rail_urban rail rail_electric rail_fast ship" speed="36.11" length="5.27" width="3.50" customShape="1" shape="-808.13,-618.09 -809.60,-613.31 -809.64,-613.18 -809.68,-613.05"/>
    </edge>
    <edge id="89589" from="35" to="34" priority="3" type="highway.residential" spreadType="center" length="5.49" shape="-840.70,-519.05 -823.98,-592.34">
        <lane id="89589_0" index="0" disallow="pedestrian tram rail_urban rail rail_electric rail_fast ship" speed="36.11" length="5.49" width="3.50" customShape="1" shape="-834.05,-539.40 -833.31,-542.04 -832.57,-544.69"/>
    </edge>
    <edge id="89590" from="34" to="35" priority="3" type="highway.residential" spreadType="center" length="5.49" shape="-820.57,-591.56 -837.29,-518.27">
        <lane id="89590_0" index="0" disallow="pedestrian tram rail_urban rail rail_electric rail_fast ship" speed="36.11" length="5.49" width="3.50" customShape="1" shape="-829.20,-543.74 -829.94,-541.10 -830.68,-538.45"/>
    </edge>
    <edge id="89595" from="33" to="35" priority="3" type="highway.residential" spreadType="center" length="18.73" shape="-860.11,-462.97 -840.62,-519.32">
        <lane id="89595_0" index="0" disallow="pedestrian tram rail_urban rail rail_electric rail_fast ship" speed="36.11" length="18.73" width="3.50" customShape="1" shape="-854.33,-482.38 -852.05,-486.88 -849.36,-492.87 -846.85,-499.53"/>
    </edge>
    <edge id="89596" from="35" to="33" priority="3" type="highway.residential" spreadType="center" length="19.18" shape="-837.32,-518.18 -856.80,-461.83">
        <lane id="89596_0" index="0" disallow="pedestrian tram rail_urban rail rail_electric rail_fast ship" speed="36.11" length="19.18" width="3.50" customShape="1" shape="-843.58,-498.30 -846.13,-491.52 -848.89,-485.36 -851.24,-480.74"/>
    </edge>
    <edge id="89598" from="30" to="33" priority="3" type="highway.residential" spreadType="center" length="70.06" shape="-930.90,-406.56 -859.52,-463.79">
        <lane id="89598_0" index="0" disallow="pedestrian tram rail_urban rail rail_electric rail_fast ship" speed="36.11" length="70.06" width="3.50" customShape="1" shape="-930.90,-406.56 -920.49,-414.19 -910.04,-422.14 -904.20,-426.97 -896.80,-433.85 -887.74,-441.90 -882.96,-446.40 -877.66,-451.92"/>
    </edge>
    <edge id="89599" from="33" to="18" priority="3" type="highway.residential" spreadType="center" length="69.99" shape="-857.33,-461.06 -928.29,-404.13">
        <lane id="89599_0" index="0" disallow="pedestrian tram rail_urban rail rail_electric rail_fast ship" speed="36.11" length="69.99" width="3.50" customShape="1" shape="-875.14,-449.50 -880.46,-443.95 -885.30,-439.38 -894.40,-431.30 -901.85,-424.38 -907.77,-419.48 -918.30,-411.46 -928.29,-404.13"/>
    </edge>
    <edge id="89735" from="35" to="5" priority="3" type="highway.residential" spreadType="center" length="70.00" shape="-838.26,-520.29 -760.91,-482.89">
        <lane id="89735_0" index="0" disallow="pedestrian tram rail_urban rail rail_electric rail_fast ship" speed="36.11" length="70.00" width="3.50" customShape="1" shape="-819.78,-515.62 -804.95,-510.19 -793.56,-505.77 -784.67,-501.95 -776.87,-498.19 -766.56,-492.64 -764.85,-491.54 -763.69,-490.55 -762.69,-489.40 -761.92,-488.08 -761.36,-486.66 -760.97,-484.67 -760.91,-482.89"/>
    </edge>
    <edge id="89736" from="21" to="35" priority="3" type="highway.residential" spreadType="center" length="70.02" shape="-764.95,-478.58 -839.82,-517.17">
        <lane id="89736_0" index="0" disallow="pedestrian tram rail_urban rail rail_electric rail_fast ship" speed="36.11" length="70.02" width="3.50" customShape="1" shape="-764.95,-478.58 -764.59,-481.11 -764.50,-482.95 -764.61,-484.69 -764.87,-485.84 -765.31,-486.90 -765.94,-487.82 -766.81,-488.64 -768.35,-489.63 -778.51,-495.10 -786.19,-498.79 -794.97,-502.56 -806.25,-506.94 -820.99,-512.33"/>
    </edge>
    <edge id="89749" from="35" to="3" priority="3" type="highway.residential" spreadType="center" length="20.58" shape="-839.35,-516.99 -878.22,-527.08">
        <lane id="89749_0" index="0" disallow="pedestrian tram rail_urban rail rail_electric rail_fast ship" speed="36.11" length="20.58" width="3.50" customShape="1" shape="-858.46,-521.34 -868.34,-524.21 -878.22,-527.08"/>
    </edge>
    <edge id="89750" from="20" to="35" priority="3" type="highway.residential" spreadType="center" length="20.58" shape="-877.25,-530.44 -838.47,-520.38">
        <lane id="89750_0" index="0" disallow="pedestrian tram rail_urban rail rail_electric rail_fast ship" speed="36.11" length="20.58" width="3.50" customShape="1" shape="-877.25,-530.44 -867.37,-527.57 -857.49,-524.70"/>
    </edge>

    <junction id="18" type="dead_end" x="-928.29" y="-404.13" incLanes="89599_0" intLanes="" shape="-927.26,-402.72 -929.33,-405.54" rightOfWay="edgePriority"/>
    <junction id="19" type="dead_end" x="-799.92" y="-435.15" incLanes="89453_0" intLanes="" shape="-799.18,-436.73 -800.66,-433.57" rightOfWay="edgePriority"/>
    <junction id="20" type="dead_end" x="-877.25" y="-530.44" incLanes="" intLanes="" shape="-877.74,-528.76 -876.76,-532.12" rightOfWay="edgePriority"/>
    <junction id="21" type="dead_end" x="-764.95" y="-478.58" incLanes="" intLanes="" shape="-763.22,-478.34 -766.69,-478.83" rightOfWay="edgePriority"/>
    <junction id="25" type="dead_end" x="-824.95" y="-623.61" incLanes="89434_0" intLanes="" shape="-826.62,-624.04 -823.28,-623.17" rightOfWay="edgePriority"/>
    <junction id="26" type="dead_end" x="-811.47" y="-619.12" incLanes="89586_0" intLanes="" shape="-813.14,-619.63 -809.80,-618.60" rightOfWay="edgePriority"/>
    <junction id="27" type="dead_end" x="-801.41" y="-431.98" incLanes="" intLanes="" shape="-800.66,-433.57 -802.15,-430.40" rightOfWay="edgePriority"/>
    <junction id="3" type="dead_end" x="-878.22" y="-527.08" incLanes="89749_0" intLanes="" shape="-878.71,-525.40 -877.74,-528.76" rightOfWay="edgePriority"/>
    <junction id="30" type="dead_end" x="-930.90" y="-406.56" incLanes="" intLanes="" shape="-929.86,-405.15 -931.93,-407.97" rightOfWay="edgePriority"/>
    <junction id="31" type="dead_end" x="-821.60" y="-622.69" incLanes="" intLanes="" shape="-823.29,-623.13 -819.90,-622.26" rightOfWay="edgePriority"/>
    <junction id="32" type="dead_end" x="-808.13" y="-618.09" incLanes="" intLanes="" shape="-809.80,-618.60 -806.46,-617.57" rightOfWay="edgePriority"/>
    <junction id="33" type="priority" x="-858.45" y="-462.40" incLanes="89454_0 89596_0 89598_0" intLanes=":33_0_0 :33_1_0 :33_2_0 :33_3_0 :33_4_0 :33_5_0" shape="-847.65,-451.79 -844.67,-458.12 -848.41,-460.42 -850.99,-463.26 -852.40,-466.64 -852.65,-470.56 -851.73,-475.02 -849.65,-480.01 -855.89,-483.17 -859.66,-476.04 -862.75,-470.92 -865.70,-466.94 -869.03,-463.24 -873.26,-458.93 -878.92,-453.13 -873.87,-448.29 -870.24,-451.41 -866.31,-453.52 -862.08,-454.62 -857.56,-454.69 -852.75,-453.75">
        <request index="0" response="001000" foes="001000" cont="0"/>
        <request index="1" response="111000" foes="111000" cont="0"/>
        <request index="2" response="000000" foes="100000" cont="0"/>
        <request index="3" response="000000" foes="100011" cont="0"/>
        <request index="4" response="000000" foes="000010" cont="0"/>
        <request index="5" response="001100" foes="001110" cont="0"/>
    </junction>
    <junction id="34" type="priority" x="-822.28" y="-591.95" incLanes="89587_0 89435_0 89589_0" intLanes=":34_0_0 :34_1_0 :34_2_0 :34_3_0" shape="-808.01,-612.54 -814.70,-614.59 -820.21,-621.05 -826.94,-622.81 -829.22,-610.33 -830.16,-597.28 -830.46,-583.94 -830.78,-570.62 -831.82,-557.59 -834.26,-545.16 -827.52,-543.27">
        <request index="0" response="0000" foes="0010" cont="0"/>
        <request index="1" response="1001" foes="1001" cont="0"/>
        <request index="2" response="0000" foes="0000" cont="0"/>
        <request index="3" response="0000" foes="0010" cont="0"/>
    </junction>
    <junction id="35" type="priority" x="-838.99" y="-518.70" incLanes="89736_0 89590_0 89750_0 89595_0" intLanes=":35_0_0 :35_1_0 :35_2_0 :35_3_0 :35_4_0 :35_5_0 :35_6_0 :35_7_0 :35_8_0 :35_9_0 :35_10_0 :35_11_0" shape="-821.59,-510.69 -819.18,-517.26 -823.39,-519.28 -826.57,-521.87 -828.72,-525.04 -829.84,-528.78 -829.93,-533.09 -829.00,-537.98 -835.74,-539.87 -837.74,-534.44 -840.36,-530.29 -843.59,-527.41 -847.44,-525.79 -851.91,-525.45 -857.00,-526.38 -858.95,-519.66 -854.20,-517.83 -850.66,-515.43 -848.31,-512.46 -847.17,-508.92 -847.23,-504.82 -848.49,-500.15 -841.94,-497.69 -839.49,-503.04 -836.67,-507.12 -833.47,-509.93 -829.89,-511.46 -825.93,-511.71">
        <request index="0" response="000000010000" foes="000100010000" cont="0"/>
        <request index="1" response="111000110000" foes="111100110000" cont="0"/>
        <request index="2" response="110011110000" foes="110011110000" cont="0"/>
        <request index="3" response="000000000000" foes="100010000000" cont="0"/>
        <request index="4" response="000000000000" foes="100110000111" cont="0"/>
        <request index="5" response="011000000000" foes="011110000110" cont="0"/>
        <request index="6" response="010000000000" foes="010000000100" cont="0"/>
        <request index="7" response="110000111000" foes="110000111100" cont="0"/>
        <request index="8" response="110000110011" foes="110000110011" cont="0"/>
        <request index="9" response="000000000000" foes="000000100010" cont="0"/>
        <request index="10" response="000000000000" foes="000111100110" cont="0"/>
        <request index="11" response="000000011000" foes="000110011110" cont="0"/>
    </junction>
    <junction id="5" type="dead_end" x="-760.91" y="-482.89" incLanes="89735_0" intLanes="" shape="-759.17,-482.95 -762.66,-482.84" rightOfWay="edgePriority"/>

    <connection from="89435" to="89590" fromLane="0" toLane="0" contPos="-4.00" shape="-822.90,-617.64 -824.04,-612.67 -824.87,-607.64 -825.52,-601.56 -825.89,-594.44 -825.95,-584.24 -825.90,-569.97 -826.16,-562.84 -826.70,-556.75 -827.42,-551.70 -828.44,-546.71 -829.20,-543.74" via=":34_1_0" dir="s" state="m"/>
    <connection from="89454" to="89599" fromLane="0" toLane="0" contPos="-4.00" shape="-846.91,-453.37 -849.84,-454.62 -852.87,-455.63 -855.98,-456.32 -858.10,-456.58 -860.22,-456.64 -862.34,-456.49 -864.44,-456.11 -866.47,-455.50 -868.43,-454.66 -870.28,-453.62 -872.02,-452.39 -873.64,-451.01 -875.14,-449.50" via=":33_0_0" dir="r" state="m"/>
    <connection from="89454" to="89595" fromLane="0" toLane="0" contPos="-4.00" shape="-846.91,-453.37 -849.28,-454.61 -851.53,-456.06 -853.59,-457.76 -854.53,-458.71 -855.39,-459.73 -856.16,-460.82 -856.83,-461.98 -857.39,-463.20 -857.83,-464.46 -858.15,-465.76 -858.34,-467.08 -858.43,-468.42 -858.29,-471.09 -857.80,-473.72 -857.05,-476.28 -855.53,-480.00 -854.33,-482.38" via=":33_1_0" dir="l" state="m"/>
    <connection from="89587" to="89590" fromLane="0" toLane="0" contPos="-4.00" shape="-809.68,-613.06 -819.44,-578.40 -829.20,-543.74" via=":34_0_0" dir="s" state="M"/>
    <connection from="89589" to="89434" fromLane="0" toLane="0" contPos="-4.00" shape="-832.58,-544.68 -831.83,-547.57 -830.83,-552.47 -830.12,-557.41 -829.60,-563.41 -829.34,-570.46 -829.39,-584.70 -829.33,-594.94 -828.96,-602.15 -828.30,-608.33 -827.45,-613.46 -826.29,-618.50" via=":34_2_0" dir="R" state="M"/>
    <connection from="89589" to="89586" fromLane="0" toLane="0" contPos="-4.00" shape="-832.58,-544.68 -822.80,-579.37 -813.03,-614.07" via=":34_3_0" dir="s" state="M"/>
    <connection from="89590" to="89735" fromLane="0" toLane="0" contPos="-4.00" shape="-830.68,-538.45 -831.45,-535.10 -831.74,-532.88 -831.83,-530.66 -831.67,-528.47 -831.24,-526.36 -830.50,-524.33 -830.03,-523.41 -829.47,-522.51 -828.87,-521.67 -827.40,-520.07 -825.72,-518.68 -823.86,-517.49 -821.86,-516.47 -819.78,-515.62" via=":35_3_0" dir="r" state="M"/>
    <connection from="89590" to="89596" fromLane="0" toLane="0" contPos="-4.00" shape="-830.68,-538.45 -834.47,-525.62 -839.21,-510.95 -843.58,-498.30" via=":35_4_0" dir="s" state="M"/>
    <connection from="89590" to="89749" fromLane="0" toLane="0" contPos="-4.00" shape="-830.68,-538.45 -831.84,-534.89 -833.32,-531.45 -834.57,-529.21 -836.04,-527.09 -837.77,-525.14 -839.75,-523.44 -840.87,-522.68 -842.03,-522.02 -843.24,-521.46 -844.52,-520.99 -847.06,-520.37 -849.66,-520.11 -852.25,-520.17 -854.79,-520.49 -858.46,-521.34" via=":35_5_0" dir="l" state="m"/>
    <connection from="89595" to="89749" fromLane="0" toLane="0" contPos="-4.00" shape="-846.87,-499.48 -846.51,-500.56 -845.89,-502.80 -845.48,-505.03 -845.31,-507.25 -845.45,-509.47 -845.63,-510.50 -845.91,-511.53 -846.28,-512.52 -846.74,-513.47 -847.28,-514.38 -847.92,-515.23 -848.63,-516.04 -849.39,-516.77 -851.16,-518.13 -853.10,-519.26 -855.16,-520.21 -858.46,-521.34" via=":35_9_0" dir="r" state="M"/>
    <connection from="89595" to="89589" fromLane="0" toLane="0" contPos="-4.00" shape="-846.87,-499.48 -842.54,-512.05 -837.82,-526.65 -834.05,-539.40" via=":35_10_0" dir="s" state="M"/>