<routes>
	<vehicle depart="0.1" departLane="0" departPos="27.788523533904524" departSpeed="2.8412149" id="326" type="bicycle">
		<route edges="19811 20183"/>
	</vehicle>
	<vehicle depart="0.1" departLane="0" departPos="15.581931356910708" departSpeed="3.1995714" id="347" type="bus">
		<route edges="19811 20183"/>
	</vehicle>
	<vehicle depart="0.1" departLane="0" departPos="20.10011770699997" departSpeed="4.4585615" id="33" type="passenger">
		<route edges=":82_1 19811"/>
	</vehicle>
	<vehicle depart="0.1" departLane="0" departPos="69.31942866090596" departSpeed="0.013349752" id="36" type="passenger">
		<route edges="19703 19811"/>
	</vehicle>
	<vehicle depart="0.1" departLane="0" departPos="4.7937048049176685" departSpeed="0.37191161" id="39" type="passenger">
		<route edges="19700"/>
	</vehicle>
	<vehicle depart="0.1" departLane="0" departPos="31.35081863541809" departSpeed="3.600566" id="317" type="passenger">
		<route edges=":82_1 19811 20183"/>
	</vehicle>
	<vehicle depart="0.1" departLane="0" departPos="60.32456057904957" departSpeed="0.0" id="353" type="passenger">
		<route edges="19701 19811"/>
	</vehicle>
	<vehicle depart="0.1" departLane="0" departPos="52.731314329529354" departSpeed="0.097822052" id="358" type="passenger">
		<route edges="19701 19811"/>
	</vehicle>
</routes>
