<routes>
	<vehicle depart="0.1" departLane="0" departPos="18.70502748341973" departSpeed="0.92805318" id="39" type="passenger">
		<route edges=":37_0 46680"/>
	</vehicle>
	<vehicle depart="0.1" departLane="0" departPos="18.07973249353702" departSpeed="0.87600479" id="314" type="passenger">
		<route edges=":39_1 46817"/>
	</vehicle>
	<vehicle depart="0.1" departLane="0" departPos="28.849940595788595" departSpeed="8.6882099" id="318" type="passenger">
		<route edges=":37_5 46721 46718 46715"/>
	</vehicle>
	<vehicle depart="0.1" departLane="0" departPos="72.49937702329433" departSpeed="0.54345076" id="323" type="passenger">
		<route edges="46679 46676"/>
	</vehicle>
	<vehicle depart="0.1" departLane="0" departPos="58.99235310764806" departSpeed="4.6348978" id="338" type="passenger">
		<route edges="46677 46680"/>
	</vehicle>
	<vehicle depart="0.1" departLane="0" departPos="55.99966983581962" departSpeed="0.91157622" id="343" type="passenger">
		<route edges="46679 46676"/>
	</vehicle>
	<vehicle depart="0.1" departLane="0" departPos="44.21550190273115" departSpeed="1.1762229" id="348" type="passenger">
		<route edges="46679 46676"/>
	</vehicle>
	<vehicle depart="0.1" departLane="0" departPos="13.414927226447395" departSpeed="0.23850962" id="319" type="motorcycle">
		<route edges=":37_9 46721"/>
	</vehicle>
	<vehicle depart="0.1" departLane="0" departPos="5.964165966704371" departSpeed="4.4117687" id="324" type="motorcycle">
		<route edges=":37_4 46680"/>
	</vehicle>
	<vehicle depart="0.1" departLane="0" departPos="61.76398902028759" departSpeed="0.68918073" id="334" type="motorcycle">
		<route edges="46679 46676"/>
	</vehicle>
</routes>
