<routes>
	<vehicle depart="0.1" departLane="0" departPos="79.96621913093182" departSpeed="6.8752085" id="313" type="bicycle">
		<route edges="174 171 634"/>
	</vehicle>
	<vehicle depart="0.1" departLane="0" departPos="37.54188630270403" departSpeed="0.0" id="324" type="bicycle">
		<route edges="243 175 178"/>
	</vehicle>
	<vehicle depart="0.1" departLane="0" departPos="37.42766341415031" departSpeed="0.0" id="328" type="bus">
		<route edges="243 175 178"/>
	</vehicle>
	<vehicle depart="0.1" departLane="0" departPos="37.82485982244642" departSpeed="17.164569" id="312" type="passenger">
		<route edges="175 178"/>
	</vehicle>
	<vehicle depart="0.1" departLane="0" departPos="9.09587041110321" departSpeed="7.4346089" id="326" type="passenger">
		<route edges=":29_4 244"/>
	</vehicle>
	<vehicle depart="0.1" departLane="0" departPos="9.967479235531439" departSpeed="0.38874613" id="330" type="passenger">
		<route edges="249 172"/>
	</vehicle>
	<vehicle depart="0.1" departLane="0" departPos="22.923751320899303" departSpeed="0.38093668" id="332" type="passenger">
		<route edges="243 171"/>
	</vehicle>
	<vehicle depart="0.1" departLane="0" departPos="16.107799436442498" departSpeed="8.2144015" id="333" type="passenger">
		<route edges="172 175 178"/>
	</vehicle>
	<vehicle depart="0.1" departLane="0" departPos="15.060523949075616" departSpeed="1.1989177" id="335" type="passenger">
		<route edges="243 171"/>
	</vehicle>
	<vehicle depart="0.1" departLane="0" departPos="5.71424068631646" departSpeed="4.3068978" id="336" type="passenger">
		<route edges=":31_3 250"/>
	</vehicle>
	<vehicle depart="0.1" departLane="0" departPos="7.060116070811815" departSpeed="1.276449" id="337" type="passenger">
		<route edges="243 171"/>
	</vehicle>
	<vehicle depart="0.1" departLane="0" departPos="1.25" departSpeed="0.00035035823" id="338" type="motorcycle">
		<route edges="169 172 175 178"/>
	</vehicle>
</routes>
