<routes>
	<vehicle depart="0.1" departLane="0" departPos="29.54727249288392" departSpeed="0.63047213" id="317" type="passenger">
		<route edges="3794 3901"/>
	</vehicle>
	<vehicle depart="0.1" departLane="0" departPos="30.122174377139512" departSpeed="7.5472459" id="324" type="passenger">
		<route edges=":70_11 3793 3575"/>
	</vehicle>
	<vehicle depart="0.1" departLane="0" departPos="25.244524628347346" departSpeed="7.7607039" id="344" type="passenger">
		<route edges=":71_4 3902"/>
	</vehicle>
	<vehicle depart="0.1" departLane="0" departPos="7.302061139811661" departSpeed="1.5300955" id="345" type="passenger">
		<route edges=":70_11 3793"/>
	</vehicle>
	<vehicle depart="0.1" departLane="0" departPos="8.532019689185788" departSpeed="1.9762614" id="349" type="passenger">
		<route edges="3902 3793"/>
	</vehicle>
	<vehicle depart="0.1" departLane="0" departPos="20.292421461681098" departSpeed="2.1490846" id="380" type="passenger">
		<route edges="3901 3590"/>
	</vehicle>
	<vehicle depart="0.1" departLane="0" departPos="30.96748032769347" departSpeed="13.578514" id="394" type="passenger">
		<route edges=":70_5 3338 3341"/>
	</vehicle>
	<vehicle depart="0.1" departLane="0" departPos="61.67109483491403" departSpeed="10.079077" id="398" type="passenger">
		<route edges="3628 3901"/>
	</vehicle>
	<vehicle depart="0.1" departLane="0" departPos="17.028784214918737" departSpeed="9.4258238" id="3106" type="passenger">
		<route edges="3628 3338"/>
	</vehicle>
	<vehicle depart="0.1" departLane="0" departPos="29.96521055769021" departSpeed="1.1407138" id="350" type="truck">
		<route edges=":70_1 3338"/>
	</vehicle>
</routes>
