<routes>
	<vehicle depart="0.1" departLane="0" departPos="63.24866701840147" departSpeed="0.0" id="31" type="passenger">
		<route edges="6938 6906"/>
	</vehicle>
	<vehicle depart="0.1" departLane="0" departPos="61.33991165120616" departSpeed="1.3685672" id="317" type="passenger">
		<route edges="6903 6906"/>
	</vehicle>
	<vehicle depart="0.1" departLane="0" departPos="10.468041241288727" departSpeed="0.62082947" id="318" type="passenger">
		<route edges=":33_1 6937"/>
	</vehicle>
	<vehicle depart="0.1" departLane="0" departPos="49.21153579892898" departSpeed="0.45043184" id="319" type="passenger">
		<route edges="6903 6906"/>
	</vehicle>
	<vehicle depart="0.1" departLane="0" departPos="70.26151147980728" departSpeed="0.0" id="324" type="passenger">
		<route edges="6938 6906"/>
	</vehicle>
	<vehicle depart="0.1" departLane="0" departPos="22.573538430245517" departSpeed="0.83477591" id="329" type="passenger">
		<route edges="6903 6906"/>
	</vehicle>
	<vehicle depart="0.1" departLane="0" departPos="9.714839741530568" departSpeed="0.08090873" id="339" type="passenger">
		<route edges="6903 6906"/>
	</vehicle>
	<vehicle depart="0.1" departLane="0" departPos="32.41838650663022" departSpeed="0.50487249" id="333" type="motorcycle">
		<route edges="6903 6906"/>
	</vehicle>
</routes>
