<!-- generated on Tue Feb  9 22:19:18 2021 by Eclipse SUMO netconvert Version 1.8.0
<configuration xmlns:xsi="http://www.w3.org/2001/XMLSchema-instance" xsi:noNamespaceSchemaLocation="http://sumo.dlr.de/xsd/netconvertConfiguration.xsd">

    <input>
        <node-files value="./converted_scenarios/scenario-factory/DEU_Hennigsdorf-11_2_I-1-1/DEU_Hennigsdorf-11_2_I-1-1.nod.xml"/>
        <edge-files value="./converted_scenarios/scenario-factory/DEU_Hennigsdorf-11_2_I-1-1/DEU_Hennigsdorf-11_2_I-1-1.edg.xml"/>
        <connection-files value="./converted_scenarios/scenario-factory/DEU_Hennigsdorf-11_2_I-1-1/DEU_Hennigsdorf-11_2_I-1-1.con.xml"/>
        <tllogic-files value="./converted_scenarios/scenario-factory/DEU_Hennigsdorf-11_2_I-1-1/DEU_Hennigsdorf-11_2_I-1-1.tll.xml"/>
        <type-files value="/home/zen/commonroad-interactive-benchmarks/install/commonroad-map-tool/crmapconverter/sumo_map/templates/DEU.typ.xml"/>
    </input>

    <output>
        <output-file value="./converted_scenarios/scenario-factory/DEU_Hennigsdorf-11_2_I-1-1/DEU_Hennigsdorf-11_2_I-1-1.net.xml"/>
    </output>

    <processing>
        <geometry.remove.keep-edges.explicit value="true"/>
        <geometry.avoid-overlap value="true"/>
        <offset.disable-normalization value="true"/>
    </processing>

    <junctions>
        <no-turnarounds value="true"/>
        <junctions.internal-link-detail value="20"/>
    </junctions>

    <report>
        <aggregate-warnings value="5"/>
    </report>

    <random_number>
        <seed value="1234"/>
    </random_number>

</configuration>
--><net xmlns:xsi="http://www.w3.org/2001/XMLSchema-instance" version="1.6" junctionCornerDetail="5" junctionLinkDetail="20" limitTurnSpeed="5.50" xsi:noNamespaceSchemaLocation="http://sumo.dlr.de/xsd/net_file.xsd">

    <location netOffset="0.00,0.00" convBoundary="-154.98,828.24,-23.68,1009.23" origBoundary="-156.22,828.24,-23.68,1009.23" projParameter="!"/>

    <type id="highway.bridleway" priority="1" speed="2.78" allow="pedestrian" oneway="1" width="2.00"/>
    <type id="highway.bus_guideway" priority="1" speed="27.78" allow="bus" oneway="1"/>
    <type id="highway.cycleway" priority="1" speed="8.33" allow="bicycle" oneway="0" width="1.00"/>
    <type id="highway.footway" priority="1" speed="2.78" allow="pedestrian" oneway="1" width="2.00"/>
    <type id="highway.ford" priority="1" speed="2.78" allow="army" oneway="0"/>
    <type id="highway.living_street" priority="2" speed="2.78" disallow="tram rail_urban rail rail_electric rail_fast ship" oneway="0"/>
    <type id="highway.motorway" priority="14" speed="39.44" allow="private emergency authority army vip passenger hov taxi bus coach delivery truck trailer motorcycle evehicle custom1 custom2" oneway="1"/>
    <type id="highway.motorway_link" priority="9" speed="22.22" allow="private emergency authority army vip passenger hov taxi bus coach delivery truck trailer motorcycle evehicle custom1 custom2" oneway="1"/>
    <type id="highway.path" priority="1" speed="2.78" allow="pedestrian bicycle" oneway="0" width="2.00"/>
    <type id="highway.pedestrian" priority="1" speed="2.78" allow="pedestrian" oneway="1" width="2.00"/>
    <type id="highway.primary" priority="12" speed="27.78" disallow="pedestrian tram rail_urban rail rail_electric rail_fast ship" oneway="0"/>
    <type id="highway.primary_link" priority="7" speed="22.22" disallow="pedestrian tram rail_urban rail rail_electric rail_fast ship" oneway="0"/>
    <type id="highway.raceway" priority="15" speed="83.33" allow="vip" oneway="0"/>
    <type id="highway.residential" priority="3" speed="13.89" disallow="pedestrian tram rail_urban rail rail_electric rail_fast ship" oneway="0"/>
    <type id="highway.secondary" priority="11" speed="27.78" disallow="pedestrian tram rail_urban rail rail_electric rail_fast ship" oneway="0"/>
    <type id="highway.secondary_link" priority="6" speed="22.22" disallow="pedestrian tram rail_urban rail rail_electric rail_fast ship" oneway="0"/>
    <type id="highway.service" priority="1" speed="5.56" allow="pedestrian delivery bicycle" oneway="0"/>
    <type id="highway.stairs" priority="1" speed="1.39" allow="pedestrian" oneway="1" width="2.00"/>
    <type id="highway.step" priority="1" speed="1.39" allow="pedestrian" oneway="1" width="2.00"/>
    <type id="highway.steps" priority="1" speed="1.39" allow="pedestrian" oneway="1" width="2.00"/>
    <type id="highway.tertiary" priority="10" speed="22.22" disallow="pedestrian tram rail_urban rail rail_electric rail_fast ship" oneway="0"/>
    <type id="highway.tertiary_link" priority="5" speed="22.22" disallow="pedestrian tram rail_urban rail rail_electric rail_fast ship" oneway="0"/>
    <type id="highway.track" priority="1" speed="5.56" allow="pedestrian motorcycle moped bicycle" oneway="0"/>
    <type id="highway.trunk" priority="13" speed="27.78" disallow="pedestrian bicycle tram rail_urban rail rail_electric rail_fast ship" oneway="0"/>
    <type id="highway.trunk_link" priority="8" speed="22.22" disallow="pedestrian bicycle tram rail_urban rail rail_electric rail_fast ship" oneway="0"/>
    <type id="highway.unclassified" priority="4" speed="13.89" disallow="pedestrian tram rail_urban rail rail_electric rail_fast ship" oneway="0"/>
    <type id="highway.unsurfaced" priority="1" speed="8.33" disallow="tram rail_urban rail rail_electric rail_fast ship" oneway="0"/>
    <type id="railway.highspeed" priority="21" speed="69.44" allow="rail_fast" oneway="1"/>
    <type id="railway.light_rail" priority="19" speed="27.78" allow="rail_urban" oneway="1"/>
    <type id="railway.preserved" priority="16" speed="27.78" allow="rail" oneway="1"/>
    <type id="railway.rail" priority="20" speed="44.44" allow="rail" oneway="1"/>
    <type id="railway.subway" priority="18" speed="27.78" allow="rail_urban" oneway="1"/>
    <type id="railway.tram" priority="17" speed="13.89" allow="tram" oneway="1"/>

    <edge id=":21_0" function="internal">
        <lane id=":21_0_0" index="0" disallow="pedestrian tram rail_urban rail rail_electric rail_fast ship" speed="10.83" length="30.99" width="3.50" shape="-96.45,915.78 -98.92,913.00 -101.24,910.94 -103.29,909.56 -104.96,908.73 -106.72,908.15 -108.56,907.86 -110.42,907.90 -112.24,908.26 -113.98,908.90 -116.15,910.10 -118.14,911.59 -120.39,913.72 -122.03,915.58"/>
    </edge>
    <edge id=":21_1" function="internal">
        <lane id=":21_1_0" index="0" disallow="pedestrian tram rail_urban rail rail_electric rail_fast ship" speed="36.11" length="46.66" width="3.49" shape="-96.45,915.78 -116.99,889.98 -123.77,881.11 -125.18,879.02"/>
    </edge>
    <edge id=":21_2" function="internal">
        <lane id=":21_2_0" index="0" disallow="pedestrian tram rail_urban rail rail_electric rail_fast ship" speed="14.37" length="41.67" width="3.50" shape="-93.72,913.58 -96.71,909.58 -99.07,905.81 -100.84,902.34 -102.06,899.24 -102.94,896.02 -103.36,893.27 -103.44,890.50 -103.16,887.73 -102.51,885.03 -101.51,882.44 -100.20,879.99 -98.62,877.70 -97.20,876.00"/>
    </edge>
    <edge id=":21_3" function="internal">
        <lane id=":21_3_0" index="0" disallow="pedestrian tram rail_urban rail rail_electric rail_fast ship" speed="13.02" length="34.09" width="3.50" shape="-91.96,880.63 -94.06,883.27 -95.55,885.63 -96.73,888.16 -97.54,890.83 -97.89,893.04 -97.97,895.27 -97.68,898.05 -97.01,900.76 -96.02,903.37 -94.49,906.35 -92.35,909.62 -90.99,911.40"/>
    </edge>
    <edge id=":21_4" function="internal">
        <lane id=":21_4_0" index="0" disallow="pedestrian tram rail_urban rail rail_electric rail_fast ship" speed="36.11" length="46.30" width="3.50" shape="-94.59,878.32 -98.79,883.33 -103.33,889.36 -111.87,901.82 -117.38,909.63 -121.71,915.19 -122.03,915.58"/>
    </edge>
    <edge id=":21_5" function="internal">
        <lane id=":21_5_0" index="0" disallow="pedestrian tram rail_urban rail rail_electric rail_fast ship" speed="10.31" length="31.67" width="3.50" shape="-122.00,877.54 -120.44,880.28 -118.86,882.33 -117.44,883.67 -115.82,884.73 -114.62,885.22 -113.36,885.52 -112.06,885.61 -110.13,885.38 -108.28,884.80 -105.95,883.65 -103.80,882.21 -101.29,880.15 -98.07,876.95 -97.20,876.00"/>
    </edge>
    <edge id=":21_6" function="internal">
        <lane id=":21_6_0" index="0" disallow="pedestrian tram rail_urban rail rail_electric rail_fast ship" speed="36.11" length="46.15" width="3.50" shape="-122.00,877.54 -120.07,881.02 -117.78,884.37 -114.89,887.91 -111.39,891.59 -105.80,896.78 -97.90,903.96 -93.98,907.94 -90.99,911.40"/>
    </edge>
    <edge id=":21_7" function="internal">
        <lane id=":21_7_0" index="0" disallow="pedestrian tram rail_urban rail rail_electric rail_fast ship" speed="16.16" length="40.39" width="3.50" shape="-122.01,877.54 -119.83,882.38 -118.17,886.95 -117.05,891.12 -116.41,894.84 -116.16,898.07 -116.24,901.30 -116.69,904.51 -117.37,907.12 -118.33,909.64 -119.56,912.04 -121.04,914.30 -122.03,915.58"/>
    </edge>
    <edge id=":21_8" function="internal">
        <lane id=":21_8_0" index="0" disallow="pedestrian tram rail_urban rail rail_electric rail_fast ship" speed="14.90" length="34.26" width="3.49" shape="-127.42,911.11 -125.47,908.50 -123.82,905.68 -122.72,903.19 -121.90,900.60 -121.38,897.93 -121.15,895.22 -121.26,891.96 -121.74,888.73 -122.55,885.57 -123.84,881.98 -125.18,879.02"/>
    </edge>
    <edge id=":21_9" function="internal">
        <lane id=":21_9_0" index="0" disallow="pedestrian tram rail_urban rail rail_electric rail_fast ship" speed="36.11" length="46.33" width="3.50" shape="-127.42,911.11 -113.46,894.56 -98.20,877.12 -97.20,876.00"/>
    </edge>
    <edge id=":21_10" function="internal">
        <lane id=":21_10_0" index="0" disallow="pedestrian tram rail_urban rail rail_electric rail_fast ship" speed="12.37" length="40.89" width="3.50" shape="-124.73,913.35 -121.88,910.16 -119.23,907.63 -116.83,905.74 -114.25,904.13 -112.03,903.10 -109.70,902.38 -107.90,902.08 -106.07,902.02 -104.25,902.21 -102.46,902.63 -100.19,903.52 -98.07,904.72 -95.63,906.55 -93.41,908.64 -90.99,911.40"/>
    </edge>
    <edge id=":22_0" function="internal">
        <lane id=":22_0_0" index="0" disallow="pedestrian tram rail_urban rail rail_electric rail_fast ship" speed="36.11" length="7.38" width="3.50" shape="-71.75,943.45 -77.02,938.29"/>
        <lane id=":22_0_1" index="1" disallow="pedestrian tram rail_urban rail rail_electric rail_fast ship" speed="36.11" length="7.23" width="3.50" shape="-71.20,942.88 -75.51,937.08"/>
    </edge>
    <edge id=":5_0" function="internal">
        <lane id=":5_0_0" index="0" disallow="pedestrian tram rail_urban rail rail_electric rail_fast ship" speed="36.11" length="3.01" width="3.50" shape="-80.24,924.93 -78.39,927.30"/>
    </edge>
    <edge id=":6_0" function="internal">
        <lane id=":6_0_0" index="0" disallow="pedestrian tram rail_urban rail rail_electric rail_fast ship" speed="36.11" length="2.93" width="3.50" shape="-62.46,947.59 -60.40,949.68"/>
    </edge>

    <edge id="1919" from="20" to="21" priority="3" type="highway.residential" spreadType="center" length="54.01" shape="-144.05,828.24 -107.10,895.20">
        <lane id="1919_0" index="0" disallow="pedestrian tram rail_urban rail rail_electric rail_fast ship" speed="36.11" length="54.01" width="3.50" customShape="1" shape="-144.05,828.24 -139.84,837.40 -129.50,861.47 -122.01,877.54"/>
    </edge>
    <edge id="1920" from="21" to="14" priority="3" type="highway.residential" spreadType="center" length="54.03" shape="-110.16,896.89 -147.22,829.70">
        <lane id="1920_0" index="0" disallow="pedestrian tram rail_urban rail rail_electric rail_fast ship" speed="36.11" length="54.03" width="3.49" customShape="1" shape="-125.18,879.02 -132.67,862.95 -143.03,838.84 -147.22,829.70"/>
    </edge>
    <edge id="1963" from="21" to="5" priority="3" type="highway.residential" spreadType="center" length="17.28" shape="-107.40,894.79 -79.30,926.11">
        <lane id="1963_0" index="0" disallow="pedestrian tram rail_urban rail rail_electric rail_fast ship" speed="36.11" length="17.28" width="3.50" customShape="1" shape="-90.99,911.40 -85.15,918.75 -80.24,924.93"/>
    </edge>
    <edge id="1965" from="22" to="21" priority="3" type="highway.residential" spreadType="center" length="29.74" shape="-72.99,939.70 -111.36,898.22">
        <lane id="1965_0" index="0" disallow="pedestrian tram rail_urban rail rail_electric rail_fast ship" speed="36.11" length="29.75" width="3.50" customShape="1" shape="-77.96,939.04 -90.63,923.11 -96.47,915.75"/>
        <lane id="1965_1" index="1" disallow="pedestrian tram rail_urban rail rail_electric rail_fast ship" speed="36.11" length="29.74" width="3.50" customShape="1" shape="-75.24,936.86 -87.89,920.93 -93.73,913.57"/>
    </edge>
    <edge id="2003" from="19" to="21" priority="3" type="highway.residential" spreadType="center" length="32.04" shape="-71.97,855.57 -106.06,898.36">
        <lane id="2003_0" index="0" disallow="pedestrian tram rail_urban rail rail_electric rail_fast ship" speed="36.11" length="32.06" width="3.50" customShape="1" shape="-70.65,856.72 -81.31,868.68 -91.98,880.65"/>
        <lane id="2003_1" index="1" disallow="pedestrian tram rail_urban rail rail_electric rail_fast ship" speed="36.11" length="32.04" width="3.50" customShape="1" shape="-73.28,854.40 -83.93,866.36 -94.59,878.32"/>
    </edge>
    <edge id="2005" from="21" to="12" priority="3" type="highway.residential" spreadType="center" length="32.06" shape="-110.06,894.97 -75.88,852.06">
        <lane id="2005_0" index="0" disallow="pedestrian tram rail_urban rail rail_electric rail_fast ship" speed="36.11" length="32.06" width="3.50" customShape="1" shape="-97.20,876.00 -86.54,864.03 -75.88,852.06"/>
    </edge>
    <edge id="2010" from="21" to="13" priority="3" type="highway.residential" spreadType="center" length="44.19" shape="-107.29,897.11 -151.26,948.70">
        <lane id="2010_0" index="0" disallow="pedestrian tram rail_urban rail rail_electric rail_fast ship" speed="36.11" length="44.19" width="3.50" customShape="1" shape="-122.03,915.58 -124.30,918.31 -135.78,931.88 -144.91,942.12 -151.26,948.70"/>
    </edge>
    <edge id="2012" from="18" to="21" priority="3" type="highway.residential" spreadType="center" length="43.59" shape="-154.98,945.00 -111.20,893.61">
        <lane id="2012_0" index="0" disallow="pedestrian tram rail_urban rail rail_electric rail_fast ship" speed="36.11" length="43.59" width="3.50" customShape="1" shape="-156.24,943.79 -150.01,937.31 -141.01,927.23 -129.67,913.82 -127.42,911.11"/>
        <lane id="2012_1" index="1" disallow="pedestrian tram rail_urban rail rail_electric rail_fast ship" speed="36.11" length="43.88" width="3.50" customShape="1" shape="-153.74,946.24 -147.46,939.71 -138.40,929.56 -126.98,916.06 -124.72,913.34"/>
    </edge>
    <edge id="2207" from="6" to="7" priority="3" type="highway.residential" spreadType="center" length="68.53">
        <lane id="2207_0" index="0" disallow="pedestrian tram rail_urban rail rail_electric rail_fast ship" speed="36.11" length="68.53" width="3.50" customShape="1" shape="-60.40,949.68 -56.06,953.92 -49.75,960.45 -44.76,966.14 -41.64,970.10 -38.83,974.30 -35.55,979.98 -32.35,986.28 -27.59,996.86 -24.22,1005.29 -23.68,1006.60"/>
    </edge>
    <edge id="2208" from="4" to="22" priority="3" type="highway.residential" spreadType="center" length="80.98">
        <lane id="2208_0" index="0" disallow="pedestrian tram rail_urban rail rail_electric rail_fast ship" speed="36.11" length="80.98" width="3.50" customShape="1" shape="-26.40,1009.23 -27.30,1007.01 -30.64,998.64 -35.34,988.16 -38.46,981.95 -41.66,976.38 -44.37,972.30 -47.39,968.44 -52.30,962.84 -58.54,956.39 -71.76,943.46"/>
    </edge>
    <edge id="3601" from="5" to="6" priority="3" type="highway.residential" spreadType="center" length="25.82">
        <lane id="3601_0" index="0" disallow="pedestrian tram rail_urban rail rail_electric rail_fast ship" speed="36.11" length="25.82" width="3.50" customShape="1" shape="-78.39,927.30 -73.10,934.46 -68.20,941.07 -64.96,944.97 -62.46,947.59"/>
    </edge>

    <junction id="12" type="dead_end" x="-75.88" y="852.06" incLanes="2005_0" intLanes="" shape="-77.19,850.90 -74.57,853.23" rightOfWay="edgePriority"/>
    <junction id="13" type="dead_end" x="-151.26" y="948.70" incLanes="2010_0" intLanes="" shape="-150.00,949.92 -152.52,947.49" rightOfWay="edgePriority"/>
    <junction id="14" type="dead_end" x="-147.22" y="829.70" incLanes="1920_0" intLanes="" shape="-148.81,830.43 -145.63,828.98" rightOfWay="edgePriority"/>
    <junction id="18" type="dead_end" x="-154.98" y="945.00" incLanes="" intLanes="" shape="-152.46,947.43 -157.50,942.58" rightOfWay="edgePriority"/>
    <junction id="19" type="dead_end" x="-71.97" y="855.57" incLanes="" intLanes="" shape="-74.58,853.24 -69.36,857.90" rightOfWay="edgePriority"/>
    <junction id="20" type="dead_end" x="-144.05" y="828.24" incLanes="" intLanes="" shape="-145.64,828.97 -142.45,827.51" rightOfWay="edgePriority"/>
    <junction id="21" type="priority" x="-108.65" y="896.01" incLanes="1965_0 1965_1 2003_0 2003_1 1919_0 2012_0 2012_1" intLanes=":21_0_0 :21_1_0 :21_2_0 :21_3_0 :21_4_0 :21_5_0 :21_6_0 :21_7_0 :21_8_0 :21_9_0 :21_10_0" shape="-97.84,916.84 -89.62,910.31 -93.11,905.16 -95.27,900.17 -96.11,895.34 -95.63,890.67 -93.81,886.16 -90.67,881.82 -98.51,874.83 -102.60,878.92 -106.66,881.86 -110.58,883.39 -114.25,883.24 -117.57,881.14 -120.42,876.80 -126.76,879.76 -124.51,885.54 -123.29,891.03 -123.11,896.22 -123.96,901.11 -125.85,905.70 -128.77,910.00 -120.69,916.70 -116.83,912.81 -112.99,910.49 -109.17,909.73 -105.37,910.53 -101.59,912.90">
        <request index="0" response="00000010000" foes="00010010000" cont="0"/>
        <request index="1" response="11100010000" foes="11110010000" cont="0"/>
        <request index="2" response="11001110000" foes="11001110000" cont="0"/>
        <request index="3" response="00000000000" foes="10001000000" cont="0"/>
        <request index="4" response="00000000000" foes="10011000111" cont="0"/>
        <request index="5" response="01000000000" foes="01000000100" cont="0"/>
        <request index="6" response="11000011000" foes="11000011100" cont="0"/>
        <request index="7" response="11000010011" foes="11000010011" cont="0"/>
        <request index="8" response="00000000000" foes="00000000010" cont="0"/>
        <request index="9" response="00000000000" foes="00011100110" cont="0"/>
        <request index="10" response="00000011000" foes="00011011110" cont="0"/>
    </junction>
    <junction id="22" type="priority" x="-72.99" y="939.70" incLanes="2208_0" intLanes=":22_0_0 :22_0_1" shape="-72.98,944.71 -70.53,942.21 -72.05,940.04 -72.33,939.10 -72.58,938.14 -73.02,937.05 -73.87,935.77 -79.33,940.14 -77.22,942.08 -76.29,942.55 -75.33,942.99 -74.25,943.63">
        <request index="0" response="00" foes="00" cont="0"/>
        <request index="1" response="00" foes="00" cont="0"/>
    </junction>
    <junction id="4" type="dead_end" x="-26.40" y="1009.23" incLanes="" intLanes="" shape="-24.78,1008.57 -28.02,1009.90" rightOfWay="edgePriority"/>
    <junction id="5" type="priority" x="-79.30" y="926.11" incLanes="1963_0" intLanes=":5_0_0" shape="-79.77,928.37 -77.01,926.22 -78.87,923.85 -81.61,926.02" rightOfWay="edgePriority">
        <request index="0" response="0" foes="0" cont="0"/>
    </junction>
    <junction id="6" type="priority" x="-61.45" y="948.65" incLanes="3601_0" intLanes=":6_0_0" shape="-61.62,950.93 -59.17,948.43 -61.20,946.38 -63.73,948.80" rightOfWay="edgePriority">
        <request index="0" response="0" foes="0" cont="0"/>
    </junction>
    <junction id="7" type="dead_end" x="-23.68" y="1006.60" incLanes="2207_0" intLanes="" shape="-22.06,1005.94 -25.30,1007.26" rightOfWay="edgePriority"/>

    <connection from="1919" to="2005" fromLane="0" toLane="0" contPos="-4.00" shape="-122.05,877.44 -120.44,880.28 -118.86,882.33 -117.44,883.67 -115.82,884.73 -114.62,885.22 -113.36,885.52 -112.06,885.61 -110.13,885.38 -108.28,884.80 -105.95,883.65 -103.80,882.21 -101.29,880.15 -98.07,876.95 -97.20,876.00" via=":21_5_0" dir="r" state="m"/>
    <connection from="1919" to="1963" fromLane="0" toLane="0" contPos="-4.00" shape="-122.05,877.44 -120.07,881.02 -117.78,884.37 -114.89,887.91 -111.39,891.59 -105.80,896.78 -97.90,903.96 -93.98,907.94 -90.99,911.40" via=":21_6_0" dir="s" state="m"/>
    <connection from="1919" to="2010" fromLane="0" toLane="0" contPos="-4.00" shape="-122.05,877.44 -119.83,882.38 -118.17,886.95 -117.05,891.12 -116.41,894.84 -116.16,898.07 -116.24,901.30 -116.69,904.51 -117.37,907.12 -118.33,909.64 -119.56,912.04 -121.04,914.30 -122.03,915.58" via=":21_7_0" dir="l" state="m"/>
    <connection from="1963" to="3601" fromLane="0" toLane="0" contPos="-4.00" via=":5_0_0" dir="s" state="M"/>
    <connection from="1965" to="2010" fromLane="0" toLane="0" contPos="-4.00" shape="-96.45,915.78 -98.92,913.00 -101.24,910.94 -103.29,909.56 -104.96,908.73 -106.72,908.15 -108.56,907.86 -110.42,907.90 -112.24,908.26 -113.98,908.90 -116.15,910.10 -118.14,911.59 -120.39,913.72 -122.03,915.58" via=":21_0_0" dir="r" state="m"/>
    <connection from="1965" to="1920" fromLane="0" toLane="0" contPos="-4.00" shape="-96.45,915.78 -116.99,889.98 -123.77,881.11 -125.18,879.02" via=":21_1_0" dir="s" state="m"/>
    <connection from="1965" to="2005" fromLane="1" toLane="0" contPos="-4.00" shape="-93.72,913.58 -96.71,909.58 -99.07,905.81 -100.84,902.34 -102.06,899.24 -102.94,896.02 -103.36,893.27 -103.44,890.50 -103.16,887.73 -102.51,885.03 -101.51,882.44 -100.20,879.99 -98.62,877.70 -97.20,876.00" via=":21_2_0" dir="l" state="m"/>
    <connection from="2003" to="1963" fromLane="0" toLane="0" contPos="-4.00" shape="-91.96,880.63 -94.06,883.27 -95.55,885.63 -96.73,888.16 -97.54,890.83 -97.89,893.04 -97.97,895.27 -97.68,898.05 -97.01,900.76 -96.02,903.37 -94.49,906.35 -92.35,909.62 -90.99,911.40" via=":21_3_0" dir="r" state="M"/>
    <connection from="2003" to="2010" fromLane="1" toLane="0" contPos="-4.00" shape="-94.59,878.32 -98.79,883.33 -103.33,889.36 -111.87,901.82 -117.38,909.63 -121.71,915.19 -122.03,915.58" via=":21_4_0" dir="s" state="M"/>
    <connection from="2012" to="1920" fromLane="0" toLane="0" contPos="-4.00" shape="-127.42,911.11 -125.47,908.50 -123.82,905.68 -122.72,903.19 -121.90,900.60 -121.38,897.93 -121.15,895.22 -121.26,891.96 -121.74,888.73 -122.55,885.57 -123.84,881.98 -125.18,879.02" via=":21_8_0" dir="r" state="M"/>
    <connection from="2012" to="2005" fromLane="0" toLane="0" contPos="-4.00" shape="-127.42,911.11 -113.46,894.56 -98.20,877.12 -97.20,876.00" via=":21_9_0" dir="s" state="M"/>
    <connection from="2012" to="1963" fromLane="1" toLane="0" contPos="-4.00" shape="-124.72,913.34 -121.88,910.16 -119.23,907.63 -116.83,905.74 -114.25,904.13 -112.03,903.10 -109.70,902.38 -107.90,902.08 -106.07,902.02 -104.25,902.21 -102.46,902.63 -100.19,903.52 -98.07,904.72 -95.63,906.55 -93.41,908.64 -90.99,911.40" via=":21_10_0" dir="l" state="m"/>
    <connection from="2208" to="1965" fromLane="0" toLane="0" contPos="-4.00" shape="-63.91,951.14 -81.66,933.74 -84.79,930.46" via=":22_0_0" dir="s" state="M"/>
    <connection from="2208" to="1965" fromLane="0" toLane="1" contPos="-4.00" shape="-63.91,951.14 -67.51,947.36 -70.85,943.35 -75.83,936.65 -81.41,929.09 -82.07,928.26" via=":22_0_1" dir="s" state="M"/>
    <connection from="3601" to="2207" fromLane="0" toLane="0" contPos="-4.00" via=":6_0_0" dir="s" state="M"/>

    <connection from=":21_0" to="2010" fromLane="0" toLane="0" dir="r" state="M"/>
    <connection from=":21_1" to="1920" fromLane="0" toLane="0" dir="s" state="M"/>
    <connection from=":21_2" to="2005" fromLane="0" toLane="0" dir="l" state="M"/>
    <connection from=":21_3" to="1963" fromLane="0" toLane="0" dir="r" state="M"/>
    <connection from=":21_4" to="2010" fromLane="0" toLane="0" dir="s" state="M"/>
    <connection from=":21_5" to="2005" fromLane="0" toLane="0" dir="r" state="M"/>
    <connection from=":21_6" to="1963" fromLane="0" toLane="0" dir="s" state="M"/>
    <connection from=":21_7" to="2010" fromLane="0" toLane="0" dir="l" state="M"/>
    <connection from=":21_8" to="1920" fromLane="0" toLane="0" dir="r" state="M"/>
    <connection from=":21_9" to="2005" fromLane="0" toLane="0" dir="s" state="M"/>
    <connection from=":21_10" to="1963" fromLane="0" toLane="0" dir="l" state="M"/>
    <connection from=":22_0" to="1965" fromLane="0" toLane="0" dir="s" state="M"/>
    <connection from=":22_0" to="1965" fromLane="1" toLane="1" dir="s" state="M"/>
    <connection from=":5_0" to="3601" fromLane="0" toLane="0" dir="s" state="M"/>
    <connection from=":6_0" to="2207" fromLane="0" toLane="0" dir="s" state="M"/>

</net>