<routes>
	<vehicle depart="0.1" departLane="0" departPos="33.871410249932254" departSpeed="2.1511005" id="325" type="bicycle">
		<route edges="1696 2043"/>
	</vehicle>
	<vehicle depart="0.1" departLane="0" departPos="63.092275219780646" departSpeed="0.32450963" id="321" type="passenger">
		<route edges="1696 2043"/>
	</vehicle>
	<vehicle depart="0.1" departLane="0" departPos="9.548763799983762" departSpeed="1.6416889" id="331" type="passenger">
		<route edges=":27_2 2043"/>
	</vehicle>
	<vehicle depart="0.1" departLane="0" departPos="28.52061446024632" departSpeed="2.9151824" id="334" type="passenger">
		<route edges="1696 2043"/>
	</vehicle>
	<vehicle depart="0.1" departLane="0" departPos="44.659914252385" departSpeed="3.7558673" id="337" type="passenger">
		<route edges="1696 2043"/>
	</vehicle>
	<vehicle depart="0.1" departLane="0" departPos="27.820961863028863" departSpeed="9.5412222" id="339" type="passenger">
		<route edges=":27_5 2043 3279"/>
	</vehicle>
	<vehicle depart="0.1" departLane="0" departPos="8.96782128080131" departSpeed="7.2357186" id="342" type="passenger">
		<route edges=":27_4 1697"/>
	</vehicle>
	<vehicle depart="0.1" departLane="0" departPos="9.193495137401067" departSpeed="3.9807085" id="344" type="passenger">
		<route edges="2697 1697"/>
	</vehicle>
	<vehicle depart="0.1" departLane="0" departPos="39.003971393434895" departSpeed="0.65946198" id="329" type="motorcycle">
		<route edges="1696 2043"/>
	</vehicle>
</routes>
