<routes>
	<vehicle depart="0.1" departLane="0" departPos="23.865270426188243" departSpeed="1.1961685" id="349" type="bus">
		<route edges="1416 1553"/>
	</vehicle>
	<vehicle depart="0.1" departLane="0" departPos="7.606849533344028" departSpeed="6.1506159" id="316" type="passenger">
		<route edges=":32_1 1417"/>
	</vehicle>
	<vehicle depart="0.1" departLane="0" departPos="69.89884113820052" departSpeed="2.3328771e-10" id="320" type="passenger">
		<route edges="1416 1553"/>
	</vehicle>
	<vehicle depart="0.1" departLane="0" departPos="62.00088936909133" departSpeed="0.38113598" id="329" type="passenger">
		<route edges="1416 1553"/>
	</vehicle>
	<vehicle depart="0.1" departLane="0" departPos="49.91410972583754" departSpeed="1.2483976" id="335" type="passenger">
		<route edges="1416 1553"/>
	</vehicle>
	<vehicle depart="0.1" departLane="0" departPos="28.877971051336097" departSpeed="0.26527056" id="352" type="passenger">
		<route edges="1552 1549"/>
	</vehicle>
	<vehicle depart="0.1" departLane="0" departPos="21.376267148680608" departSpeed="0.0019812152" id="356" type="passenger">
		<route edges="1552 1417"/>
	</vehicle>
	<vehicle depart="0.1" departLane="0" departPos="36.10225360330452" departSpeed="1.9941992" id="342" type="truck">
		<route edges="1416 1553"/>
	</vehicle>
	<vehicle depart="0.1" departLane="0" departPos="13.859725263136404" departSpeed="0.017148598" id="358" type="truck">
		<route edges="1552 1417"/>
	</vehicle>
</routes>
