<!-- generated on Tue Feb  9 22:11:20 2021 by Eclipse SUMO netconvert Version 1.8.0
<configuration xmlns:xsi="http://www.w3.org/2001/XMLSchema-instance" xsi:noNamespaceSchemaLocation="http://sumo.dlr.de/xsd/netconvertConfiguration.xsd">

    <input>
        <node-files value="./converted_scenarios/scenario-factory/DEU_Ibbenbueren-11_3_I-1-1/DEU_Ibbenbueren-11_3_I-1-1.nod.xml"/>
        <edge-files value="./converted_scenarios/scenario-factory/DEU_Ibbenbueren-11_3_I-1-1/DEU_Ibbenbueren-11_3_I-1-1.edg.xml"/>
        <connection-files value="./converted_scenarios/scenario-factory/DEU_Ibbenbueren-11_3_I-1-1/DEU_Ibbenbueren-11_3_I-1-1.con.xml"/>
        <tllogic-files value="./converted_scenarios/scenario-factory/DEU_Ibbenbueren-11_3_I-1-1/DEU_Ibbenbueren-11_3_I-1-1.tll.xml"/>
        <type-files value="/home/zen/commonroad-interactive-benchmarks/install/commonroad-map-tool/crmapconverter/sumo_map/templates/DEU.typ.xml"/>
    </input>

    <output>
        <output-file value="./converted_scenarios/scenario-factory/DEU_Ibbenbueren-11_3_I-1-1/DEU_Ibbenbueren-11_3_I-1-1.net.xml"/>
    </output>

    <processing>
        <geometry.remove.keep-edges.explicit value="true"/>
        <geometry.avoid-overlap value="true"/>
        <offset.disable-normalization value="true"/>
    </processing>

    <junctions>
        <no-turnarounds value="true"/>
        <junctions.internal-link-detail value="20"/>
    </junctions>

    <report>
        <aggregate-warnings value="5"/>
    </report>

    <random_number>
        <seed value="1234"/>
    </random_number>

</configuration>
--><net xmlns:xsi="http://www.w3.org/2001/XMLSchema-instance" version="1.6" junctionCornerDetail="5" junctionLinkDetail="20" limitTurnSpeed="5.50" xsi:noNamespaceSchemaLocation="http://sumo.dlr.de/xsd/net_file.xsd">

    <location netOffset="0.00,0.00" convBoundary="-837.78,-508.42,-577.07,-280.29" origBoundary="-837.78,-508.42,-577.07,-280.29" projParameter="!"/>

    <type id="highway.bridleway" priority="1" speed="2.78" allow="pedestrian" oneway="1" width="2.00"/>
    <type id="highway.bus_guideway" priority="1" speed="27.78" allow="bus" oneway="1"/>
    <type id="highway.cycleway" priority="1" speed="8.33" allow="bicycle" oneway="0" width="1.00"/>
    <type id="highway.footway" priority="1" speed="2.78" allow="pedestrian" oneway="1" width="2.00"/>
    <type id="highway.ford" priority="1" speed="2.78" allow="army" oneway="0"/>
    <type id="highway.living_street" priority="2" speed="2.78" disallow="tram rail_urban rail rail_electric rail_fast ship" oneway="0"/>
    <type id="highway.motorway" priority="14" speed="39.44" allow="private emergency authority army vip passenger hov taxi bus coach delivery truck trailer motorcycle evehicle custom1 custom2" oneway="1"/>
    <type id="highway.motorway_link" priority="9" speed="22.22" allow="private emergency authority army vip passenger hov taxi bus coach delivery truck trailer motorcycle evehicle custom1 custom2" oneway="1"/>
    <type id="highway.path" priority="1" speed="2.78" allow="pedestrian bicycle" oneway="0" width="2.00"/>
    <type id="highway.pedestrian" priority="1" speed="2.78" allow="pedestrian" oneway="1" width="2.00"/>
    <type id="highway.primary" priority="12" speed="27.78" disallow="pedestrian tram rail_urban rail rail_electric rail_fast ship" oneway="0"/>
    <type id="highway.primary_link" priority="7" speed="22.22" disallow="pedestrian tram rail_urban rail rail_electric rail_fast ship" oneway="0"/>
    <type id="highway.raceway" priority="15" speed="83.33" allow="vip" oneway="0"/>
    <type id="highway.residential" priority="3" speed="13.89" disallow="pedestrian tram rail_urban rail rail_electric rail_fast ship" oneway="0"/>
    <type id="highway.secondary" priority="11" speed="27.78" disallow="pedestrian tram rail_urban rail rail_electric rail_fast ship" oneway="0"/>
    <type id="highway.secondary_link" priority="6" speed="22.22" disallow="pedestrian tram rail_urban rail rail_electric rail_fast ship" oneway="0"/>
    <type id="highway.service" priority="1" speed="5.56" allow="pedestrian delivery bicycle" oneway="0"/>
    <type id="highway.stairs" priority="1" speed="1.39" allow="pedestrian" oneway="1" width="2.00"/>
    <type id="highway.step" priority="1" speed="1.39" allow="pedestrian" oneway="1" width="2.00"/>
    <type id="highway.steps" priority="1" speed="1.39" allow="pedestrian" oneway="1" width="2.00"/>
    <type id="highway.tertiary" priority="10" speed="22.22" disallow="pedestrian tram rail_urban rail rail_electric rail_fast ship" oneway="0"/>
    <type id="highway.tertiary_link" priority="5" speed="22.22" disallow="pedestrian tram rail_urban rail rail_electric rail_fast ship" oneway="0"/>
    <type id="highway.track" priority="1" speed="5.56" allow="pedestrian motorcycle moped bicycle" oneway="0"/>
    <type id="highway.trunk" priority="13" speed="27.78" disallow="pedestrian bicycle tram rail_urban rail rail_electric rail_fast ship" oneway="0"/>
    <type id="highway.trunk_link" priority="8" speed="22.22" disallow="pedestrian bicycle tram rail_urban rail rail_electric rail_fast ship" oneway="0"/>
    <type id="highway.unclassified" priority="4" speed="13.89" disallow="pedestrian tram rail_urban rail rail_electric rail_fast ship" oneway="0"/>
    <type id="highway.unsurfaced" priority="1" speed="8.33" disallow="tram rail_urban rail rail_electric rail_fast ship" oneway="0"/>
    <type id="railway.highspeed" priority="21" speed="69.44" allow="rail_fast" oneway="1"/>
    <type id="railway.light_rail" priority="19" speed="27.78" allow="rail_urban" oneway="1"/>
    <type id="railway.preserved" priority="16" speed="27.78" allow="rail" oneway="1"/>
    <type id="railway.rail" priority="20" speed="44.44" allow="rail" oneway="1"/>
    <type id="railway.subway" priority="18" speed="27.78" allow="rail_urban" oneway="1"/>
    <type id="railway.tram" priority="17" speed="13.89" allow="tram" oneway="1"/>

    <edge id=":31_0" function="internal">
        <lane id=":31_0_0" index="0" disallow="pedestrian tram rail_urban rail rail_electric rail_fast ship" speed="36.11" length="0.25" width="3.50" shape="-767.22,-398.40 -767.27,-398.65"/>
    </edge>
    <edge id=":34_0" function="internal">
        <lane id=":34_0_0" index="0" disallow="pedestrian tram rail_urban rail rail_electric rail_fast ship" speed="36.11" length="2.94" width="3.50" shape="-770.83,-425.99 -771.34,-428.89"/>
    </edge>
    <edge id=":49_0" function="internal">
        <lane id=":49_0_0" index="0" disallow="pedestrian tram rail_urban rail rail_electric rail_fast ship" speed="36.11" length="27.12" width="3.46" shape="-755.39,-348.48 -757.66,-359.23 -761.05,-375.00"/>
    </edge>
    <edge id=":49_1" function="internal">
        <lane id=":49_1_0" index="0" disallow="pedestrian tram rail_urban rail rail_electric rail_fast ship" speed="11.98" length="34.47" width="3.50" shape="-755.40,-348.48 -756.02,-352.46 -756.17,-355.10 -756.04,-357.75 -755.57,-360.35 -755.19,-361.62 -754.71,-362.85 -754.12,-364.03 -753.42,-365.16 -752.62,-366.21 -751.73,-367.19 -750.75,-368.08 -749.70,-368.89 -747.43,-370.25 -745.01,-371.32 -742.49,-372.12 -738.60,-372.94"/>
    </edge>
    <edge id=":49_2" function="internal">
        <lane id=":49_2_0" index="0" disallow="pedestrian tram rail_urban rail rail_electric rail_fast ship" speed="10.96" length="28.70" width="3.50" shape="-738.01,-369.49 -741.44,-368.78 -743.57,-368.09 -745.60,-367.21 -747.49,-366.06 -748.31,-365.43 -749.09,-364.72 -749.80,-363.94 -750.44,-363.11 -750.99,-362.22 -751.46,-361.27 -751.84,-360.29 -752.14,-359.29 -752.53,-357.12 -752.64,-354.91 -752.52,-352.67 -751.97,-349.23"/>
    </edge>
    <edge id=":49_3" function="internal">
        <lane id=":49_3_0" index="0" disallow="pedestrian tram rail_urban rail rail_electric rail_fast ship" speed="11.52" length="28.92" width="3.46" shape="-738.01,-369.49 -739.13,-369.30 -741.26,-368.84 -746.63,-367.55 -751.05,-366.67 -753.42,-366.41 -754.73,-366.40 -756.11,-366.57 -757.60,-367.09 -759.08,-368.26 -761.05,-375.00"/>
    </edge>
    <edge id=":49_4" function="internal">
        <lane id=":49_4_0" index="0" disallow="pedestrian tram rail_urban rail rail_electric rail_fast ship" speed="9.68" length="20.22" width="3.50" shape="-755.98,-368.29 -756.14,-369.67 -755.49,-368.86 -754.56,-368.39 -753.53,-368.25 -752.48,-368.31 -750.44,-368.78 -746.51,-370.22 -741.63,-372.13 -739.63,-372.73 -738.60,-372.94"/>
    </edge>
    <edge id=":49_5" function="internal">
        <lane id=":49_5_0" index="0" disallow="pedestrian tram rail_urban rail rail_electric rail_fast ship" speed="36.11" length="19.48" width="3.50" shape="-755.98,-368.29 -754.23,-359.96 -751.97,-349.23"/>
    </edge>
    <edge id=":50_0" function="internal">
        <lane id=":50_0_0" index="0" disallow="pedestrian tram rail_urban rail rail_electric rail_fast ship" speed="36.11" length="37.88" width="3.50" shape="-660.72,-355.49 -671.33,-359.24 -684.01,-363.27 -696.80,-366.98"/>
    </edge>
    <edge id=":50_1" function="internal">
        <lane id=":50_1_0" index="0" disallow="pedestrian tram rail_urban rail rail_electric rail_fast ship" speed="12.25" length="33.59" width="3.50" shape="-660.72,-355.49 -664.14,-356.98 -666.37,-358.22 -668.48,-359.70 -670.42,-361.45 -672.09,-363.44 -672.84,-364.59 -673.47,-365.76 -674.01,-366.98 -674.45,-368.28 -674.98,-370.83 -675.15,-373.44 -675.00,-376.01 -674.59,-378.54 -673.61,-382.16"/>
    </edge>
    <edge id=":50_2" function="internal">
        <lane id=":50_2_0" index="0" disallow="pedestrian tram rail_urban rail rail_electric rail_fast ship" speed="11.25" length="28.15" width="3.50" shape="-670.29,-381.06 -671.14,-377.92 -671.49,-375.79 -671.61,-373.62 -671.47,-371.46 -671.02,-369.34 -670.67,-368.32 -670.24,-367.32 -669.72,-366.37 -669.13,-365.46 -667.74,-363.80 -666.13,-362.36 -664.35,-361.11 -662.46,-360.06 -659.49,-358.77"/>
    </edge>
    <edge id=":50_3" function="internal">
        <lane id=":50_3_0" index="0" disallow="pedestrian tram rail_urban rail rail_electric rail_fast ship" speed="12.41" length="34.07" width="3.50" shape="-670.29,-381.06 -671.71,-377.40 -672.91,-375.06 -674.33,-372.86 -676.02,-370.86 -677.97,-369.11 -679.05,-368.36 -680.18,-367.70 -681.36,-367.14 -682.59,-366.67 -685.13,-366.04 -687.74,-365.77 -690.36,-365.82 -692.96,-366.12 -696.80,-366.98"/>
    </edge>
    <edge id=":50_4" function="internal">
        <lane id=":50_4_0" index="0" disallow="pedestrian tram rail_urban rail rail_electric rail_fast ship" speed="11.42" length="28.71" width="3.50" shape="-695.89,-370.36 -692.51,-369.60 -690.29,-369.34 -688.07,-369.30 -685.90,-369.52 -683.79,-370.05 -682.82,-370.42 -681.86,-370.87 -680.95,-371.40 -680.10,-371.99 -678.47,-373.44 -677.07,-375.11 -675.87,-376.97 -674.85,-378.95 -673.61,-382.16"/>
    </edge>
    <edge id=":50_5" function="internal">
        <lane id=":50_5_0" index="0" disallow="pedestrian tram rail_urban rail rail_electric rail_fast ship" speed="36.11" length="38.21" width="3.50" shape="-695.89,-370.36 -682.99,-366.62 -670.20,-362.55 -659.49,-358.77"/>
    </edge>
    <edge id=":51_0" function="internal">
        <lane id=":51_0_0" index="0" disallow="pedestrian tram rail_urban rail rail_electric rail_fast ship" speed="33.67" length="33.99" width="3.50" shape="-701.86,-368.39 -706.88,-369.58 -711.97,-370.41 -717.10,-370.87 -722.25,-371.00 -727.40,-370.80 -732.53,-370.31 -735.56,-369.88"/>
    </edge>
    <edge id=":51_1" function="internal">
        <lane id=":51_1_0" index="0" disallow="pedestrian tram rail_urban rail rail_electric rail_fast ship" speed="14.77" length="32.41" width="3.50" shape="-701.86,-368.39 -704.15,-369.13 -706.36,-370.09 -708.45,-371.27 -710.41,-372.66 -712.20,-374.26 -713.82,-376.03 -715.25,-377.96 -716.49,-380.02 -718.03,-383.28 -719.21,-386.68 -720.10,-390.17 -720.53,-392.51"/>
    </edge>
    <edge id=":51_2" function="internal">
        <lane id=":51_2_0" index="0" disallow="pedestrian tram rail_urban rail rail_electric rail_fast ship" speed="13.89" length="28.56" width="3.50" shape="-717.11,-393.22 -716.69,-390.97 -715.90,-387.82 -714.85,-384.78 -713.50,-381.88 -712.43,-380.09 -711.21,-378.40 -709.82,-376.86 -708.29,-375.47 -706.62,-374.27 -704.82,-373.24 -702.92,-372.41 -700.93,-371.76"/>
    </edge>
    <edge id=":51_3" function="internal">
        <lane id=":51_3_0" index="0" disallow="pedestrian tram rail_urban rail rail_electric rail_fast ship" speed="11.96" length="34.10" width="3.50" shape="-717.11,-393.22 -716.77,-390.57 -716.69,-387.99 -716.88,-385.39 -717.43,-382.82 -717.86,-381.52 -718.40,-380.27 -719.05,-379.08 -719.80,-377.95 -720.64,-376.89 -721.58,-375.91 -722.60,-375.00 -724.75,-373.50 -727.06,-372.29 -729.45,-371.34 -731.91,-370.62 -735.56,-369.88"/>
    </edge>
    <edge id=":51_4" function="internal">
        <lane id=":51_4_0" index="0" disallow="pedestrian tram rail_urban rail rail_electric rail_fast ship" speed="10.95" length="28.36" width="3.50" shape="-736.12,-373.33 -732.92,-373.98 -730.82,-374.59 -728.79,-375.39 -726.85,-376.39 -725.05,-377.63 -724.23,-378.35 -723.47,-379.13 -722.78,-379.98 -722.17,-380.89 -721.64,-381.84 -721.20,-382.84 -720.84,-383.87 -720.37,-386.01 -720.20,-388.18 -720.27,-390.37 -720.53,-392.51"/>
    </edge>
    <edge id=":51_5" function="internal">
        <lane id=":51_5_0" index="0" disallow="pedestrian tram rail_urban rail rail_electric rail_fast ship" speed="34.50" length="35.49" width="3.50" shape="-736.12,-373.33 -732.94,-373.78 -727.61,-374.29 -722.24,-374.50 -716.86,-374.37 -711.50,-373.87 -706.18,-373.01 -700.93,-371.76"/>
    </edge>
    <edge id=":52_0" function="internal">
        <lane id=":52_0_0" index="0" disallow="pedestrian tram rail_urban rail rail_electric rail_fast ship" speed="8.48" length="20.23" width="3.50" shape="-761.09,-375.20 -760.39,-371.17 -761.34,-371.56 -762.35,-371.20 -763.24,-370.60 -764.87,-369.18 -767.15,-366.87 -770.18,-363.80 -771.80,-362.37 -772.68,-361.73"/>
    </edge>
    <edge id=":52_1" function="internal">
        <lane id=":52_1_0" index="0" disallow="pedestrian tram rail_urban rail rail_electric rail_fast ship" speed="36.11" length="15.84" width="3.50" shape="-761.09,-375.20 -761.11,-374.60 -764.37,-384.73 -765.35,-388.67 -765.45,-389.20"/>
    </edge>
    <edge id=":52_2" function="internal">
        <lane id=":52_2_0" index="0" disallow="pedestrian tram rail_urban rail rail_electric rail_fast ship" speed="36.11" length="22.22" width="3.48" shape="-758.57,-390.52 -757.99,-386.39 -757.25,-375.52 -756.65,-371.42 -756.02,-368.48"/>
    </edge>
    <edge id=":52_3" function="internal">
        <lane id=":52_3_0" index="0" disallow="pedestrian tram rail_urban rail rail_electric rail_fast ship" speed="13.98" length="32.22" width="3.50" shape="-762.01,-389.86 -761.47,-386.29 -761.27,-382.72 -761.46,-379.15 -761.85,-376.80 -762.46,-374.50 -763.30,-372.27 -764.38,-370.14 -765.69,-368.15 -767.20,-366.31 -768.89,-364.62 -770.72,-363.10 -772.68,-361.73"/>
    </edge>
    <edge id=":52_4" function="internal">
        <lane id=":52_4_0" index="0" disallow="pedestrian tram rail_urban rail rail_electric rail_fast ship" speed="13.07" length="28.07" width="3.50" shape="-774.60,-364.66 -772.86,-365.88 -771.26,-367.20 -769.81,-368.66 -768.52,-370.24 -767.41,-371.95 -766.49,-373.78 -765.78,-375.69 -765.26,-377.68 -764.94,-379.70 -764.78,-382.85 -764.97,-386.01 -765.45,-389.20"/>
    </edge>
    <edge id=":52_5" function="internal">
        <lane id=":52_5_0" index="0" disallow="pedestrian tram rail_urban rail rail_electric rail_fast ship" speed="9.23" length="24.37" width="3.48" shape="-774.60,-364.66 -773.62,-365.32 -771.75,-366.68 -768.00,-369.48 -765.05,-371.51 -762.90,-372.75 -761.60,-373.30 -759.95,-373.61 -757.73,-372.85 -756.02,-368.48"/>
    </edge>
    <edge id=":53_0" function="internal">
        <lane id=":53_0_0" index="0" disallow="pedestrian tram rail_urban rail rail_electric rail_fast ship" speed="36.11" length="37.24" width="3.50" shape="-628.31,-453.76 -635.28,-447.37 -642.82,-440.10 -647.87,-434.85 -651.23,-430.96 -653.00,-428.55 -653.95,-426.91"/>
    </edge>
    <edge id=":53_1" function="internal">
        <lane id=":53_1_0" index="0" disallow="pedestrian tram rail_urban rail rail_electric rail_fast ship" speed="13.14" length="32.54" width="3.50" shape="-656.79,-456.55 -655.78,-455.74 -653.98,-453.96 -652.42,-451.89 -651.21,-449.59 -650.38,-447.14 -649.93,-444.62 -649.81,-442.09 -649.98,-439.60 -650.38,-437.15 -651.29,-433.63 -652.50,-430.22 -653.95,-426.91"/>
    </edge>
    <edge id=":53_2" function="internal">
        <lane id=":53_2_0" index="0" disallow="pedestrian tram rail_urban rail rail_electric rail_fast ship" speed="12.16" length="27.81" width="3.50" shape="-657.14,-428.35 -655.82,-431.36 -654.73,-434.37 -653.90,-437.46 -653.53,-439.56 -653.35,-441.68 -653.40,-443.81 -653.72,-445.92 -654.35,-447.95 -655.31,-449.86 -656.56,-451.58 -658.07,-453.09 -658.91,-453.76"/>
    </edge>
    <edge id=":53_3" function="internal">
        <lane id=":53_3_0" index="0" disallow="pedestrian tram rail_urban rail rail_electric rail_fast ship" speed="36.11" length="38.69" width="3.50" shape="-657.14,-428.35 -656.04,-430.29 -654.15,-432.89 -650.67,-436.96 -645.48,-442.38 -637.77,-449.82 -630.65,-456.36"/>
    </edge>
    <edge id=":54_0" function="internal">
        <lane id=":54_0_0" index="0" disallow="pedestrian tram rail_urban rail rail_electric rail_fast ship" speed="36.11" length="8.04" width="3.50" shape="-765.08,-417.83 -762.92,-410.09"/>
        <lane id=":54_0_1" index="1" disallow="pedestrian tram rail_urban rail rail_electric rail_fast ship" speed="36.11" length="8.04" width="3.50" shape="-766.15,-417.62 -765.27,-409.63"/>
    </edge>

    <edge id="31015" from="52" to="31" priority="3" type="highway.residential" spreadType="center" length="9.37" shape="-766.39,-374.37 -767.25,-398.52">
        <lane id="31015_0" index="0" disallow="pedestrian tram rail_urban rail rail_electric rail_fast ship" speed="36.11" length="9.37" width="3.50" customShape="1" shape="-765.45,-389.20 -766.35,-393.85 -767.22,-398.40"/>
    </edge>
    <edge id="31017" from="54" to="52" priority="3" type="highway.residential" spreadType="center" length="20.03" shape="-764.86,-413.80 -761.15,-374.57">
        <lane id="31017_0" index="0" disallow="pedestrian tram rail_urban rail rail_electric rail_fast ship" speed="36.11" length="20.09" width="3.50" customShape="1" shape="-762.37,-410.20 -759.47,-395.17 -758.57,-390.47"/>
        <lane id="31017_1" index="1" disallow="pedestrian tram rail_urban rail rail_electric rail_fast ship" speed="36.11" length="20.03" width="3.50" customShape="1" shape="-765.80,-409.52 -762.91,-394.51 -762.01,-389.85"/>
    </edge>
    <edge id="31253" from="34" to="37" priority="3" type="highway.residential" spreadType="center" length="36.86">
        <lane id="31253_0" index="0" disallow="pedestrian tram rail_urban rail rail_electric rail_fast ship" speed="36.11" length="36.86" width="3.50" customShape="1" shape="-771.34,-428.89 -774.27,-443.80 -778.74,-465.00"/>
    </edge>
    <edge id="31254" from="42" to="54" priority="3" type="highway.residential" spreadType="center" length="49.03">
        <lane id="31254_0" index="0" disallow="pedestrian tram rail_urban rail rail_electric rail_fast ship" speed="36.11" length="49.03" width="3.50" customShape="1" shape="-775.33,-465.78 -770.84,-444.50 -765.59,-417.73"/>
    </edge>
    <edge id="31368" from="50" to="51" priority="3" type="highway.residential" spreadType="center" length="5.26" shape="-676.50,-367.43 -719.11,-376.47">
        <lane id="31368_0" index="0" disallow="pedestrian tram rail_urban rail rail_electric rail_fast ship" speed="36.11" length="5.26" width="3.50" customShape="1" shape="-696.80,-366.98 -699.34,-367.68 -701.87,-368.39"/>
    </edge>
    <edge id="31369" from="51" to="50" priority="3" type="highway.residential" spreadType="center" length="5.25" shape="-718.39,-379.89 -675.77,-370.85">
        <lane id="31369_0" index="0" disallow="pedestrian tram rail_urban rail rail_electric rail_fast ship" speed="36.11" length="5.25" width="3.50" customShape="1" shape="-700.93,-371.76 -698.40,-371.06 -695.87,-370.35"/>
    </edge>
    <edge id="31371" from="41" to="50" priority="3" type="highway.residential" spreadType="center" length="68.55" shape="-596.12,-332.68 -676.86,-367.54">
        <lane id="31371_0" index="0" disallow="pedestrian tram rail_urban rail rail_electric rail_fast ship" speed="36.11" length="68.55" width="3.50" customShape="1" shape="-596.12,-332.68 -601.95,-334.37 -613.47,-338.03 -627.25,-342.86 -660.73,-355.50"/>
    </edge>
    <edge id="31372" from="50" to="23" priority="3" type="highway.residential" spreadType="center" length="68.22" shape="-675.47,-370.76 -595.19,-336.05">
        <lane id="31372_0" index="0" disallow="pedestrian tram rail_urban rail rail_electric rail_fast ship" speed="36.11" length="68.22" width="3.50" customShape="1" shape="-659.49,-358.77 -626.11,-346.17 -612.40,-341.36 -600.95,-337.72 -595.19,-336.05"/>
    </edge>
    <edge id="31522" from="36" to="52" priority="3" type="highway.residential" spreadType="center" length="70.04" shape="-837.78,-336.40 -765.46,-376.11">
        <lane id="31522_0" index="0" disallow="pedestrian tram rail_urban rail rail_electric rail_fast ship" speed="36.11" length="70.04" width="3.50" customShape="1" shape="-837.78,-336.40 -831.86,-338.33 -829.42,-338.91 -825.43,-339.41 -821.93,-339.78 -819.47,-340.27 -817.09,-341.07 -811.03,-343.51 -804.66,-346.49 -798.01,-350.04 -790.23,-354.66 -774.57,-364.68"/>
    </edge>
    <edge id="31523" from="52" to="30" priority="3" type="highway.residential" spreadType="center" length="69.99" shape="-763.77,-373.04 -835.81,-333.36">
        <lane id="31523_0" index="0" disallow="pedestrian tram rail_urban rail rail_electric rail_fast ship" speed="36.11" length="69.99" width="3.50" customShape="1" shape="-772.68,-361.73 -788.39,-351.68 -796.24,-347.03 -802.97,-343.43 -809.42,-340.39 -815.57,-337.90 -818.07,-337.04 -820.73,-336.44 -824.33,-336.00 -828.24,-335.56 -830.50,-335.07 -835.81,-333.36"/>
    </edge>
    <edge id="31555" from="51" to="49" priority="3" type="highway.residential" spreadType="center" length="2.53" shape="-717.86,-376.62 -749.31,-361.85">
        <lane id="31555_0" index="0" disallow="pedestrian tram rail_urban rail rail_electric rail_fast ship" speed="36.11" length="2.53" width="3.50" customShape="1" shape="-735.56,-369.88 -736.82,-369.68 -738.06,-369.49"/>
    </edge>
    <edge id="31556" from="49" to="51" priority="3" type="highway.residential" spreadType="center" length="2.52" shape="-750.80,-365.02 -719.35,-379.78">
        <lane id="31556_0" index="0" disallow="pedestrian tram rail_urban rail rail_electric rail_fast ship" speed="36.11" length="2.52" width="3.50" customShape="1" shape="-738.60,-372.94 -737.37,-373.14 -736.11,-373.34"/>
    </edge>
    <edge id="31608" from="53" to="50" priority="3" type="highway.residential" spreadType="center" length="48.70" shape="-645.97,-445.39 -674.50,-368.53">
        <lane id="31608_0" index="0" disallow="pedestrian tram rail_urban rail rail_electric rail_fast ship" speed="36.11" length="48.70" width="3.50" customShape="1" shape="-653.95,-426.91 -654.35,-426.02 -658.33,-415.72 -663.11,-402.49 -670.29,-381.05"/>
    </edge>
    <edge id="31609" from="50" to="53" priority="3" type="highway.residential" spreadType="center" length="49.13" shape="-677.77,-369.74 -649.24,-446.60">
        <lane id="31609_0" index="0" disallow="pedestrian tram rail_urban rail rail_electric rail_fast ship" speed="36.11" length="49.13" width="3.50" customShape="1" shape="-673.61,-382.16 -666.40,-403.71 -661.58,-417.03 -657.55,-427.44 -657.11,-428.42"/>
    </edge>
    <edge id="31611" from="47" to="53" priority="3" type="highway.residential" spreadType="center" length="70.01" shape="-577.07,-501.42 -646.54,-444.58">
        <lane id="31611_0" index="0" disallow="pedestrian tram rail_urban rail rail_electric rail_fast ship" speed="36.11" length="70.01" width="3.50" customShape="1" shape="-577.07,-501.42 -578.71,-499.70 -588.77,-489.78 -600.56,-478.73 -628.32,-453.75"/>
    </edge>
    <edge id="31612" from="53" to="44" priority="3" type="highway.residential" spreadType="center" length="70.00" shape="-648.75,-447.29 -579.41,-504.03">
        <lane id="31612_0" index="0" disallow="pedestrian tram rail_urban rail rail_electric rail_fast ship" speed="36.11" length="70.00" width="3.50" customShape="1" shape="-630.65,-456.36 -602.99,-481.25 -591.27,-492.23 -581.27,-502.10 -579.41,-504.03"/>
    </edge>
    <edge id="31648" from="18" to="51" priority="3" type="highway.residential" spreadType="center" length="15.18" shape="-722.99,-407.02 -716.95,-378.42">
        <lane id="31648_0" index="0" disallow="pedestrian tram rail_urban rail rail_electric rail_fast ship" speed="36.11" length="15.18" width="3.50" customShape="1" shape="-722.99,-407.02 -721.48,-404.74 -719.73,-401.97 -718.82,-399.98 -717.86,-396.85 -717.11,-393.22"/>
    </edge>
    <edge id="31649" from="51" to="9" priority="3" type="highway.residential" spreadType="center" length="13.90" shape="-720.37,-377.71 -725.94,-405.13">
        <lane id="31649_0" index="0" disallow="pedestrian tram rail_urban rail rail_electric rail_fast ship" speed="36.11" length="13.90" width="3.50" customShape="1" shape="-720.53,-392.51 -721.24,-395.96 -722.09,-398.76 -722.88,-400.43 -724.51,-402.97 -725.94,-405.13"/>
    </edge>
    <edge id="31745" from="48" to="53" priority="3" type="highway.residential" spreadType="center" length="70.06" shape="-700.15,-508.42 -646.28,-447.09">
        <lane id="31745_0" index="0" disallow="pedestrian tram rail_urban rail rail_electric rail_fast ship" speed="36.11" length="70.06" width="3.50" customShape="1" shape="-700.15,-508.42 -692.80,-501.95 -688.83,-498.05 -686.57,-496.02 -682.57,-492.93 -679.45,-490.35 -677.68,-488.54 -676.43,-486.95 -675.36,-485.23 -674.92,-484.33 -674.47,-482.88 -674.28,-481.37 -674.33,-478.84 -674.38,-477.33 -674.24,-475.82 -673.91,-474.86 -672.69,-472.65 -670.73,-469.69 -668.52,-466.93 -665.73,-464.00 -661.96,-460.62 -656.74,-456.51"/>
    </edge>
    <edge id="31746" from="53" to="43" priority="3" type="highway.residential" spreadType="center" length="70.00" shape="-648.91,-444.78 -702.31,-505.67">
        <lane id="31746_0" index="0" disallow="pedestrian tram rail_urban rail rail_electric rail_fast ship" speed="36.11" length="70.00" width="3.50" customShape="1" shape="-658.91,-453.76 -664.19,-457.93 -668.09,-461.42 -671.01,-464.47 -673.36,-467.37 -675.45,-470.45 -676.77,-472.77 -677.27,-473.94 -677.71,-475.78 -677.83,-477.56 -677.81,-480.14 -677.86,-481.46 -678.06,-482.63 -678.28,-483.25 -679.21,-484.83 -680.34,-486.27 -682.01,-487.95 -685.10,-490.46 -689.18,-493.64 -691.49,-495.77 -695.52,-499.69 -702.31,-505.67"/>
    </edge>
    <edge id="32037" from="49" to="52" priority="3" type="highway.residential" spreadType="center" length="0.20" shape="-751.10,-362.06 -765.82,-373.28">
        <lane id="32037_0" index="0" disallow="pedestrian tram rail_urban rail rail_electric rail_fast ship" speed="36.11" length="0.20" width="3.46" customShape="1" shape="-761.05,-375.00 -761.09,-375.20"/>
    </edge>
    <edge id="32038" from="52" to="49" priority="3" type="highway.residential" spreadType="center" length="0.19" shape="-763.73,-376.03 -749.00,-364.82">
        <lane id="32038_0" index="0" disallow="pedestrian tram rail_urban rail rail_electric rail_fast ship" speed="36.11" length="0.19" width="3.48" customShape="1" shape="-756.02,-368.48 -755.98,-368.29"/>
    </edge>
    <edge id="32040" from="32" to="49" priority="3" type="highway.residential" spreadType="center" length="70.00" shape="-739.83,-280.29 -751.79,-363.23">
        <lane id="32040_0" index="0" disallow="pedestrian tram rail_urban rail rail_electric rail_fast ship" speed="36.11" length="70.00" width="3.50" customShape="1" shape="-739.83,-280.29 -741.13,-286.17 -742.80,-294.06 -750.68,-326.88 -755.40,-348.53"/>
    </edge>
    <edge id="32041" from="49" to="13" priority="3" type="highway.residential" spreadType="center" length="70.00" shape="-748.33,-363.72 -736.39,-280.99">
        <lane id="32041_0" index="0" disallow="pedestrian tram rail_urban rail rail_electric rail_fast ship" speed="36.11" length="70.00" width="3.50" customShape="1" shape="-751.97,-349.23 -747.27,-327.64 -739.38,-294.83 -737.71,-286.93 -736.39,-280.99"/>
    </edge>
    <edge id="35084" from="31" to="34" priority="3" type="highway.residential" spreadType="center" length="27.58">
        <lane id="35084_0" index="0" disallow="pedestrian tram rail_urban rail rail_electric rail_fast ship" speed="36.11" length="27.58" width="3.50" customShape="1" shape="-767.27,-398.65 -768.24,-404.70 -770.07,-421.28 -770.83,-425.99"/>
    </edge>

    <junction id="13" type="dead_end" x="-736.39" y="-280.99" incLanes="32041_0" intLanes="" shape="-734.69,-281.37 -738.10,-280.61" rightOfWay="edgePriority"/>
    <junction id="18" type="dead_end" x="-722.99" y="-407.02" incLanes="" intLanes="" shape="-724.45,-406.05 -721.54,-407.98" rightOfWay="edgePriority"/>
    <junction id="23" type="dead_end" x="-595.19" y="-336.05" incLanes="31372_0" intLanes="" shape="-594.70,-337.73 -595.67,-334.37" rightOfWay="edgePriority"/>
    <junction id="30" type="dead_end" x="-835.81" y="-333.36" incLanes="31523_0" intLanes="" shape="-835.28,-331.70 -836.35,-335.03" rightOfWay="edgePriority"/>
    <junction id="31" type="priority" x="-767.25" y="-398.52" incLanes="31015_0" intLanes=":31_0_0" shape="-768.94,-398.07 -765.50,-398.73 -765.54,-398.93 -768.99,-398.37" rightOfWay="edgePriority">
        <request index="0" response="0" foes="0" cont="0"/>
    </junction>
    <junction id="32" type="dead_end" x="-739.83" y="-280.29" incLanes="" intLanes="" shape="-738.12,-280.67 -741.53,-279.92" rightOfWay="edgePriority"/>