<routes>
	<vehicle depart="0.1" departLane="0" departPos="26.288204756607332" departSpeed="5.1080068" id="321" type="passenger">
		<route edges=":49_1 31556 31649"/>
	</vehicle>
	<vehicle depart="0.1" departLane="0" departPos="56.31380478116218" departSpeed="2.0561788" id="340" type="passenger">
		<route edges="32040 31556"/>
	</vehicle>
	<vehicle depart="0.1" departLane="0" departPos="45.61990107023043" departSpeed="2.026205" id="341" type="passenger">
		<route edges="32040 31556"/>
	</vehicle>
	<vehicle depart="0.1" departLane="0" departPos="37.49678693597868" departSpeed="1.4334014" id="344" type="passenger">
		<route edges="32040 31556"/>
	</vehicle>
	<vehicle depart="0.1" departLane="0" departPos="22.501066662519317" departSpeed="2.3550196" id="347" type="passenger">
		<route edges="32040 31556"/>
	</vehicle>
	<vehicle depart="0.1" departLane="0" departPos="24.3793079462534" departSpeed="1.2791303" id="369" type="passenger">
		<route edges=":54_0 31017"/>
	</vehicle>
	<vehicle depart="0.1" departLane="0" departPos="38.97345142563863" departSpeed="7.1022082" id="373" type="passenger">
		<route edges="31254 31017 31523"/>
	</vehicle>
	<vehicle depart="0.1" departLane="0" departPos="72.15082833883754" departSpeed="0.061213105" id="32" type="truck">
		<route edges="31522 31015"/>
	</vehicle>
	<vehicle depart="0.1" departLane="0" departPos="20.835737059044718" departSpeed="0.92427429" id="365" type="truck">
		<route edges=":52_2 32038 32041"/>
	</vehicle>
	<vehicle depart="0.1" departLane="0" departPos="25.245634923118388" departSpeed="5.6012261" id="371" type="truck">
		<route edges=":52_3 31523"/>
	</vehicle>
</routes>
