<routes>
	<vehicle depart="0.1" departLane="0" departPos="31.78372611344754" departSpeed="1.4679755" id="31" type="passenger">
		<route edges="20644 20647"/>
	</vehicle>
	<vehicle depart="0.1" departLane="0" departPos="20.002399952029073" departSpeed="1.753328e-05" id="32" type="passenger">
		<route edges="20493 20496"/>
	</vehicle>
	<vehicle depart="0.1" departLane="0" departPos="12.498548273271073" departSpeed="0.00036163734" id="310" type="passenger">
		<route edges="20493 20496"/>
	</vehicle>
	<vehicle depart="0.1" departLane="0" departPos="2.5" departSpeed="0.67691472" id="318" type="passenger">
		<route edges="20493 20496"/>
	</vehicle>
	<vehicle depart="0.1" departLane="0" departPos="69.00133333348563" departSpeed="0.0" id="320" type="passenger">
		<route edges="20646 20643"/>
	</vehicle>
	<vehicle depart="0.1" departLane="0" departPos="19.982510945508416" departSpeed="7.8509145" id="326" type="passenger">
		<route edges="20492 20643"/>
	</vehicle>
	<vehicle depart="0.1" departLane="0" departPos="27.505930687888945" departSpeed="0.0" id="332" type="passenger">
		<route edges="20493 20496"/>
	</vehicle>
	<vehicle depart="0.1" departLane="0" departPos="21.820631924678686" departSpeed="1.6684437" id="335" type="passenger">
		<route edges="20644 20647"/>
	</vehicle>
</routes>
