<routes>
	<vehicle depart="0.1" departLane="0" departPos="60.30825449058021" departSpeed="0.10339608" id="316" type="bicycle">
		<route edges="5672 5713"/>
	</vehicle>
	<vehicle depart="0.1" departLane="0" departPos="26.201493170096807" departSpeed="0.018692881" id="31" type="passenger">
		<route edges="5754 5758"/>
	</vehicle>
	<vehicle depart="0.1" departLane="0" departPos="6.399324392403897" departSpeed="0.59354457" id="36" type="passenger">
		<route edges=":17_6 5755"/>
	</vehicle>
	<vehicle depart="0.1" departLane="0" departPos="51.966505632475624" departSpeed="0.31794273" id="317" type="passenger">
		<route edges="5672 5713"/>
	</vehicle>
	<vehicle depart="0.1" departLane="0" departPos="70.18182319136761" departSpeed="5.9966396" id="322" type="passenger">
		<route edges="5712 5758"/>
	</vehicle>
	<vehicle depart="0.1" departLane="0" departPos="58.65929703521656" departSpeed="5.3304267" id="323" type="passenger">
		<route edges="5712 5758"/>
	</vehicle>
	<vehicle depart="0.1" departLane="0" departPos="48.6598561154608" departSpeed="4.3656854" id="327" type="passenger">
		<route edges="5712 5755"/>
	</vehicle>
	<vehicle depart="0.1" departLane="0" departPos="19.438703804358937" departSpeed="8.703288" id="37" type="motorcycle">
		<route edges=":17_2 5758"/>
	</vehicle>
	<vehicle depart="0.1" departLane="0" departPos="36.19964551864282" departSpeed="0.40816317" id="30" type="truck">
		<route edges="5754 5758"/>
	</vehicle>
</routes>
