<routes>
	<vehicle depart="0.1" departLane="0" departPos="6.155642133363179" departSpeed="2.6959773" id="340" type="bicycle">
		<route edges=":41_1 31670"/>
	</vehicle>
	<vehicle depart="0.1" departLane="0" departPos="9.509192559424822" departSpeed="6.5276798e-05" id="31" type="passenger">
		<route edges="31858 31716"/>
	</vehicle>
	<vehicle depart="0.1" departLane="0" departPos="19.558756151570876" departSpeed="1.7278963" id="317" type="passenger">
		<route edges="31669 31715"/>
	</vehicle>
	<vehicle depart="0.1" departLane="0" departPos="16.97505995858473" departSpeed="0.0" id="322" type="passenger">
		<route edges="31858 31716"/>
	</vehicle>
	<vehicle depart="0.1" departLane="0" departPos="62.832968409292036" departSpeed="2.2356331" id="336" type="passenger">
		<route edges="31718 31715 32063"/>
	</vehicle>
	<vehicle depart="0.1" departLane="0" departPos="30.150335982898284" departSpeed="2.1741822" id="347" type="passenger">
		<route edges="31718 31670"/>
	</vehicle>
	<vehicle depart="0.1" departLane="0" departPos="11.66727144037253" departSpeed="9.5566109" id="352" type="passenger">
		<route edges=":45_5 31716 31719"/>
	</vehicle>
	<vehicle depart="0.1" departLane="0" departPos="14.370873201181695" departSpeed="2.3870275" id="351" type="motorcycle">
		<route edges="31718 31670"/>
	</vehicle>
	<vehicle depart="0.1" departLane="0" departPos="13.236162453254334" departSpeed="1.4507715" id="316" type="truck">
		<route edges="36025 31862"/>
	</vehicle>
	<vehicle depart="0.1" departLane="0" departPos="8.13846254665268" departSpeed="10.318962" id="358" type="truck">
		<route edges=":45_2 31716"/>
	</vehicle>
</routes>
