<routes>
	<vehicle depart="0.1" departLane="1" departPos="90.57465798269332" departSpeed="11.593582" id="1" type="passenger">
		<route edges="26 28 24"/>
	</vehicle>
	<vehicle depart="0.1" departLane="0" departPos="0" departSpeed="11.58908" id="2" type="passenger">
		<route edges="26 27 24"/>
	</vehicle>
	<vehicle depart="0.1" departLane="0" departPos="84.12893220165368" departSpeed="15.880986" id="3" type="passenger">
		<route edges="26 27 24"/>
	</vehicle>
</routes>
