<routes>
	<vehicle depart="0.1" departLane="1" departPos="128.21418981790436" departSpeed="5.9590877" id="1" type="passenger">
		<route edges="26 28 24"/>
	</vehicle>
	<vehicle depart="0.1" departLane="0" departPos="0" departSpeed="11.192119" id="2" type="passenger">
		<route edges="26 27 24"/>
	</vehicle>
	<vehicle depart="0.1" departLane="0" departPos="98.08928434340274" departSpeed="6.006136" id="3" type="passenger">
		<route edges="26 26 28 24"/>
	</vehicle>
</routes>
