<routes>
	<vehicle depart="0.1" departLane="1" departPos="101.44798283715849" departSpeed="12.235901" id="1" type="passenger">
		<route edges="26 28 24"/>
	</vehicle>
	<vehicle depart="0.1" departLane="0" departPos="0" departSpeed="11.226241" id="2" type="passenger">
		<route edges="26 26 28 24"/>
	</vehicle>
	<vehicle depart="0.1" departLane="0" departPos="90.5494254037459" departSpeed="11.226241" id="3" type="passenger">
		<route edges="26 27 24"/>
	</vehicle>
</routes>
