<routes>
	<vehicle depart="0.1" departLane="0" departPos="43.66666729105698" departSpeed="0.27891403" id="36" type="bicycle">
		<route edges="8837 8945"/>
	</vehicle>
	<vehicle depart="0.1" departLane="0" departPos="8.333564322803898" departSpeed="0.011854651" id="30" type="passenger">
		<route edges=":40_9 8945"/>
	</vehicle>
	<vehicle depart="0.1" departLane="0" departPos="50.77228243931808" departSpeed="0.0038910058" id="34" type="passenger">
		<route edges="8837 8945"/>
	</vehicle>
	<vehicle depart="0.1" departLane="0" departPos="35.41097842453667" departSpeed="2.2623468" id="310" type="passenger">
		<route edges="8837 8945"/>
	</vehicle>
	<vehicle depart="0.1" departLane="1" departPos="20.960458468212444" departSpeed="0.0" id="318" type="passenger">
		<route edges="8693 8940"/>
	</vehicle>
	<vehicle depart="0.1" departLane="1" departPos="26.213070141384655" departSpeed="0.71814767" id="321" type="passenger">
		<route edges="8943 8838"/>
	</vehicle>
	<vehicle depart="0.1" departLane="0" departPos="58.27904449045028" departSpeed="1.5817862" id="323" type="passenger">
		<route edges="8837 8945"/>
	</vehicle>
	<vehicle depart="0.1" departLane="0" departPos="28.538466703674846" departSpeed="9.6254813" id="346" type="passenger">
		<route edges="8943 8940 8937"/>
	</vehicle>
	<vehicle depart="0.1" departLane="0" departPos="9.526895175238245" departSpeed="10.141286" id="350" type="passenger">
		<route edges="8943 8940"/>
	</vehicle>
	<vehicle depart="0.1" departLane="0" departPos="24.840699622227792" departSpeed="9.460668" id="361" type="passenger">
		<route edges=":40_1 8945 10035"/>
	</vehicle>
</routes>
