<routes>
	<vehicle depart="0.1" departLane="0" departPos="18.210250425729882" departSpeed="0.82890761" id="318" type="passenger">
		<route edges=":73_4 70909"/>
	</vehicle>
	<vehicle depart="0.1" departLane="0" departPos="52.184997695283734" departSpeed="0.51160929" id="331" type="passenger">
		<route edges="70776 71190"/>
	</vehicle>
	<vehicle depart="0.1" departLane="0" departPos="18.19141074457739" departSpeed="1.6315519" id="339" type="passenger">
		<route edges="70776 71190"/>
	</vehicle>
	<vehicle depart="0.1" departLane="0" departPos="32.25416732334732" departSpeed="5.9700034" id="347" type="passenger">
		<route edges=":73_1 70909 70825"/>
	</vehicle>
	<vehicle depart="0.1" departLane="0" departPos="18.519844593134568" departSpeed="2.1465928" id="355" type="passenger">
		<route edges="71034 70909"/>
	</vehicle>
	<vehicle depart="0.1" departLane="0" departPos="21.329694942490157" departSpeed="1.0253" id="369" type="passenger">
		<route edges="71051 70939"/>
	</vehicle>
	<vehicle depart="0.1" departLane="0" departPos="13.503691806201598" departSpeed="1.1677597" id="379" type="passenger">
		<route edges="71051 70939"/>
	</vehicle>
	<vehicle depart="0.1" departLane="0" departPos="5.730666772144422" departSpeed="0.83045717" id="390" type="passenger">
		<route edges="71051 70939"/>
	</vehicle>
	<vehicle depart="0.1" departLane="0" departPos="1.25" departSpeed="0.51262152" id="348" type="motorcycle">
		<route edges=":73_1 70909"/>
	</vehicle>
</routes>
