<routes>
	<vehicle depart="0.1" departLane="0" departPos="6.057255097386494" departSpeed="6.7251484" id="324" type="bicycle">
		<route edges="989"/>
	</vehicle>
	<vehicle depart="0.1" departLane="0" departPos="32.8229500182712" departSpeed="9.3948194" id="323" type="bus">
		<route edges="989"/>
	</vehicle>
	<vehicle depart="0.1" departLane="0" departPos="2.5" departSpeed="0.0" id="318" type="passenger">
		<route edges="80 989"/>
	</vehicle>
	<vehicle depart="0.1" departLane="0" departPos="10.062601895449003" departSpeed="7.2243486" id="321" type="passenger">
		<route edges=":15_0 951"/>
	</vehicle>
	<vehicle depart="0.1" departLane="1" departPos="61.13717503329478" departSpeed="19.608561" id="325" type="passenger">
		<route edges="925 989"/>
	</vehicle>
	<vehicle depart="0.1" departLane="0" departPos="6.042424998203474" departSpeed="5.8189222" id="328" type="passenger">
		<route edges=":15_7 989"/>
	</vehicle>
	<vehicle depart="0.1" departLane="1" departPos="8.559867495209012" departSpeed="16.398807" id="329" type="passenger">
		<route edges="925 989"/>
	</vehicle>
	<vehicle depart="0.1" departLane="0" departPos="63.52026609751246" departSpeed="5.8112238" id="330" type="passenger">
		<route edges="950 989"/>
	</vehicle>
	<vehicle depart="0.1" departLane="0" departPos="50.79667646428564" departSpeed="5.8931718" id="332" type="passenger">
		<route edges="950 2177"/>
	</vehicle>
	<vehicle depart="0.1" departLane="0" departPos="46.171400860752016" departSpeed="12.477389" id="333" type="passenger">
		<route edges="936 925 989"/>
	</vehicle>
	<vehicle depart="0.1" departLane="0" departPos="37.907596486755814" departSpeed="5.8061953" id="334" type="passenger">
		<route edges="950 2177"/>
	</vehicle>
	<vehicle depart="0.1" departLane="0" departPos="26.625608271748035" departSpeed="9.2199472" id="335" type="passenger">
		<route edges="936 925 989"/>
	</vehicle>
	<vehicle depart="0.1" departLane="0" departPos="25.2012256524912" departSpeed="5.5737056" id="336" type="passenger">
		<route edges="950 989"/>
	</vehicle>
	<vehicle depart="0.1" departLane="0" departPos="13.087541951904234" departSpeed="5.7603241" id="337" type="passenger">
		<route edges="936 925 989"/>
	</vehicle>
	<vehicle depart="0.1" departLane="0" departPos="13.353647580462752" departSpeed="4.8659807" id="338" type="passenger">
		<route edges="950 989"/>
	</vehicle>
	<vehicle depart="0.1" departLane="0" departPos="5.353477372422098" departSpeed="2.6404714" id="339" type="passenger">
		<route edges="936 925"/>
	</vehicle>
	<vehicle depart="0.1" departLane="0" departPos="9.050718633810298" departSpeed="8.7855405" id="326" type="motorcycle">
		<route edges="989"/>
	</vehicle>
	<vehicle depart="0.1" departLane="1" departPos="32.74330156501321" departSpeed="14.20286" id="327" type="motorcycle">
		<route edges="925 989"/>
	</vehicle>
	<vehicle depart="0.1" departLane="0" departPos="68.41777236459065" departSpeed="15.188905" id="331" type="motorcycle">
		<route edges="936 925 989"/>
	</vehicle>
	<vehicle depart="0.1" departLane="1" departPos="35.958010360225074" departSpeed="19.522694" id="319" type="truck">
		<route edges="989"/>
	</vehicle>
</routes>
