<routes>
	<vehicle depart="0.1" departLane="0" departPos="45.96524319546919" departSpeed="3.6200954" id="38" type="bicycle">
		<route edges="5796 5728"/>
	</vehicle>
	<vehicle depart="0.1" departLane="0" departPos="39.227224332253655" departSpeed="0.0004319616" id="31" type="passenger">
		<route edges="5727 5724"/>
	</vehicle>
	<vehicle depart="0.1" departLane="0" departPos="67.42941677463932" departSpeed="1.0028208e-05" id="32" type="passenger">
		<route edges="5722 6268"/>
	</vehicle>
	<vehicle depart="0.1" departLane="0" departPos="50.93079879212322" departSpeed="0.63331788" id="312" type="passenger">
		<route edges="6267 5725"/>
	</vehicle>
	<vehicle depart="0.1" departLane="0" departPos="10.141820280620962" departSpeed="7.8470731" id="318" type="passenger">
		<route edges=":73_1 5799 5802"/>
	</vehicle>
	<vehicle depart="0.1" departLane="0" departPos="22.537114188088147" departSpeed="13.101726" id="322" type="passenger">
		<route edges=":77_4 5721 6198"/>
	</vehicle>
	<vehicle depart="0.1" departLane="0" departPos="62.90613863557386" departSpeed="0.71049297" id="326" type="passenger">
		<route edges="6267 5725"/>
	</vehicle>
	<vehicle depart="0.1" departLane="0" departPos="12.492109041490494" departSpeed="0.42987331" id="337" type="passenger">
		<route edges=":77_0 5725"/>
	</vehicle>
	<vehicle depart="0.1" departLane="0" departPos="74.93088310360764" departSpeed="0.0" id="352" type="passenger">
		<route edges="5722 6268"/>
	</vehicle>
	<vehicle depart="0.1" departLane="0" departPos="22.39228169806852" departSpeed="0.49915707" id="321" type="truck">
		<route edges="5798 5728"/>
	</vehicle>
</routes>
