<routes>
	<vehicle depart="0.1" departLane="0" departPos="8.876623577480819" departSpeed="0.25523796" id="31" type="passenger">
		<route edges="610 627"/>
	</vehicle>
	<vehicle depart="0.1" departLane="0" departPos="5.6973323739918875" departSpeed="1.8947996" id="35" type="passenger">
		<route edges=":30_5 610"/>
	</vehicle>
	<vehicle depart="0.1" departLane="0" departPos="59.78263144764186" departSpeed="0.34773099" id="310" type="passenger">
		<route edges="643 610"/>
	</vehicle>
	<vehicle depart="0.1" departLane="0" departPos="36.801952187921486" departSpeed="0.66486217" id="315" type="passenger">
		<route edges=":30_5 610 627"/>
	</vehicle>
	<vehicle depart="0.1" departLane="0" departPos="29.02143049557334" departSpeed="0.31965986" id="323" type="passenger">
		<route edges=":30_5 610"/>
	</vehicle>
	<vehicle depart="0.1" departLane="0" departPos="20.209412012385783" departSpeed="10.601666" id="327" type="passenger">
		<route edges=":30_0 642"/>
	</vehicle>
	<vehicle depart="0.1" departLane="0" departPos="24.271538217589704" departSpeed="10.614052" id="331" type="passenger">
		<route edges=":31_4 609 642"/>
	</vehicle>
	<vehicle depart="0.1" departLane="0" departPos="10.296129797909343" departSpeed="0.63206163" id="33" type="motorcycle">
		<route edges=":30_2 610"/>
	</vehicle>
	<vehicle depart="0.1" departLane="0" departPos="71.74378353806901" departSpeed="0.026990318" id="30" type="truck">
		<route edges="628 613"/>
	</vehicle>
</routes>
