<!-- generated on Tue Feb  9 22:20:41 2021 by Eclipse SUMO netconvert Version 1.8.0
<configuration xmlns:xsi="http://www.w3.org/2001/XMLSchema-instance" xsi:noNamespaceSchemaLocation="http://sumo.dlr.de/xsd/netconvertConfiguration.xsd">

    <input>
        <node-files value="./converted_scenarios/scenario-factory/FRA_Miramas-4_4_I-1-1/FRA_Miramas-4_4_I-1-1.nod.xml"/>
        <edge-files value="./converted_scenarios/scenario-factory/FRA_Miramas-4_4_I-1-1/FRA_Miramas-4_4_I-1-1.edg.xml"/>
        <connection-files value="./converted_scenarios/scenario-factory/FRA_Miramas-4_4_I-1-1/FRA_Miramas-4_4_I-1-1.con.xml"/>
        <tllogic-files value="./converted_scenarios/scenario-factory/FRA_Miramas-4_4_I-1-1/FRA_Miramas-4_4_I-1-1.tll.xml"/>
        <type-files value="/home/zen/commonroad-interactive-benchmarks/install/commonroad-map-tool/crmapconverter/sumo_map/templates/DEU.typ.xml"/>
    </input>

    <output>
        <output-file value="./converted_scenarios/scenario-factory/FRA_Miramas-4_4_I-1-1/FRA_Miramas-4_4_I-1-1.net.xml"/>
    </output>

    <processing>
        <geometry.remove.keep-edges.explicit value="true"/>
        <geometry.avoid-overlap value="true"/>
        <offset.disable-normalization value="true"/>
    </processing>

    <junctions>
        <no-turnarounds value="true"/>
        <junctions.internal-link-detail value="20"/>
    </junctions>

    <report>
        <aggregate-warnings value="5"/>
    </report>

    <random_number>
        <seed value="1234"/>
    </random_number>

</configuration>
--><net xmlns:xsi="http://www.w3.org/2001/XMLSchema-instance" version="1.6" junctionCornerDetail="5" junctionLinkDetail="20" limitTurnSpeed="5.50" xsi:noNamespaceSchemaLocation="http://sumo.dlr.de/xsd/net_file.xsd">

    <location netOffset="0.00,0.00" convBoundary="736.95,-811.04,995.10,-527.66" origBoundary="736.95,-811.04,995.10,-527.66" projParameter="!"/>

    <type id="highway.bridleway" priority="1" speed="2.78" allow="pedestrian" oneway="1" width="2.00"/>
    <type id="highway.bus_guideway" priority="1" speed="27.78" allow="bus" oneway="1"/>
    <type id="highway.cycleway" priority="1" speed="8.33" allow="bicycle" oneway="0" width="1.00"/>
    <type id="highway.footway" priority="1" speed="2.78" allow="pedestrian" oneway="1" width="2.00"/>
    <type id="highway.ford" priority="1" speed="2.78" allow="army" oneway="0"/>
    <type id="highway.living_street" priority="2" speed="2.78" disallow="tram rail_urban rail rail_electric rail_fast ship" oneway="0"/>
    <type id="highway.motorway" priority="14" speed="39.44" allow="private emergency authority army vip passenger hov taxi bus coach delivery truck trailer motorcycle evehicle custom1 custom2" oneway="1"/>
    <type id="highway.motorway_link" priority="9" speed="22.22" allow="private emergency authority army vip passenger hov taxi bus coach delivery truck trailer motorcycle evehicle custom1 custom2" oneway="1"/>
    <type id="highway.path" priority="1" speed="2.78" allow="pedestrian bicycle" oneway="0" width="2.00"/>
    <type id="highway.pedestrian" priority="1" speed="2.78" allow="pedestrian" oneway="1" width="2.00"/>
    <type id="highway.primary" priority="12" speed="27.78" disallow="pedestrian tram rail_urban rail rail_electric rail_fast ship" oneway="0"/>
    <type id="highway.primary_link" priority="7" speed="22.22" disallow="pedestrian tram rail_urban rail rail_electric rail_fast ship" oneway="0"/>
    <type id="highway.raceway" priority="15" speed="83.33" allow="vip" oneway="0"/>
    <type id="highway.residential" priority="3" speed="13.89" disallow="pedestrian tram rail_urban rail rail_electric rail_fast ship" oneway="0"/>
    <type id="highway.secondary" priority="11" speed="27.78" disallow="pedestrian tram rail_urban rail rail_electric rail_fast ship" oneway="0"/>
    <type id="highway.secondary_link" priority="6" speed="22.22" disallow="pedestrian tram rail_urban rail rail_electric rail_fast ship" oneway="0"/>
    <type id="highway.service" priority="1" speed="5.56" allow="pedestrian delivery bicycle" oneway="0"/>
    <type id="highway.stairs" priority="1" speed="1.39" allow="pedestrian" oneway="1" width="2.00"/>
    <type id="highway.step" priority="1" speed="1.39" allow="pedestrian" oneway="1" width="2.00"/>
    <type id="highway.steps" priority="1" speed="1.39" allow="pedestrian" oneway="1" width="2.00"/>
    <type id="highway.tertiary" priority="10" speed="22.22" disallow="pedestrian tram rail_urban rail rail_electric rail_fast ship" oneway="0"/>
    <type id="highway.tertiary_link" priority="5" speed="22.22" disallow="pedestrian tram rail_urban rail rail_electric rail_fast ship" oneway="0"/>
    <type id="highway.track" priority="1" speed="5.56" allow="pedestrian motorcycle moped bicycle" oneway="0"/>
    <type id="highway.trunk" priority="13" speed="27.78" disallow="pedestrian bicycle tram rail_urban rail rail_electric rail_fast ship" oneway="0"/>
    <type id="highway.trunk_link" priority="8" speed="22.22" disallow="pedestrian bicycle tram rail_urban rail rail_electric rail_fast ship" oneway="0"/>
    <type id="highway.unclassified" priority="4" speed="13.89" disallow="pedestrian tram rail_urban rail rail_electric rail_fast ship" oneway="0"/>
    <type id="highway.unsurfaced" priority="1" speed="8.33" disallow="tram rail_urban rail rail_electric rail_fast ship" oneway="0"/>
    <type id="railway.highspeed" priority="21" speed="69.44" allow="rail_fast" oneway="1"/>
    <type id="railway.light_rail" priority="19" speed="27.78" allow="rail_urban" oneway="1"/>
    <type id="railway.preserved" priority="16" speed="27.78" allow="rail" oneway="1"/>
    <type id="railway.rail" priority="20" speed="44.44" allow="rail" oneway="1"/>
    <type id="railway.subway" priority="18" speed="27.78" allow="rail_urban" oneway="1"/>
    <type id="railway.tram" priority="17" speed="13.89" allow="tram" oneway="1"/>

    <edge id=":48_0" function="internal">
        <lane id=":48_0_0" index="0" disallow="pedestrian tram rail_urban rail rail_electric rail_fast ship" speed="36.11" length="36.36" width="3.50" shape="911.77,-572.22 904.42,-600.37 902.64,-607.42"/>
    </edge>
    <edge id=":48_1" function="internal">
        <lane id=":48_1_0" index="0" disallow="pedestrian tram rail_urban rail rail_electric rail_fast ship" speed="9.51" length="20.00" width="3.50" shape="915.62,-593.86 914.73,-594.00 912.52,-594.68 910.43,-595.68 908.54,-597.01 906.89,-598.64 905.50,-600.49 904.38,-602.52 903.29,-605.20 902.64,-607.42"/>
    </edge>
    <edge id=":48_2" function="internal">
        <lane id=":48_2_0" index="0" disallow="pedestrian tram rail_urban rail rail_electric rail_fast ship" speed="36.11" length="36.32" width="3.50" shape="906.03,-608.28 907.81,-601.24 915.15,-573.12"/>
    </edge>
    <edge id=":49_0" function="internal">
        <lane id=":49_0_0" index="0" disallow="pedestrian tram rail_urban rail rail_electric rail_fast ship" speed="11.33" length="29.01" width="3.50" shape="871.83,-739.06 870.99,-742.18 870.21,-744.18 869.23,-746.09 868.01,-747.86 867.31,-748.67 866.54,-749.43 865.72,-750.12 864.85,-750.74 863.92,-751.29 862.95,-751.76 860.93,-752.47 858.82,-752.90 856.68,-753.07 854.53,-753.04 851.33,-752.67 850.27,-752.48"/>
    </edge>
    <edge id=":49_1" function="internal">
        <lane id=":49_1_0" index="0" disallow="pedestrian tram rail_urban rail rail_electric rail_fast ship" speed="36.11" length="38.98" width="3.50" shape="871.83,-739.06 867.81,-757.07 863.19,-775.99 862.93,-777.01"/>
    </edge>
    <edge id=":49_2" function="internal">
        <lane id=":49_2_0" index="0" disallow="pedestrian tram rail_urban rail rail_electric rail_fast ship" speed="12.16" length="33.80" width="3.50" shape="871.83,-739.06 871.22,-742.91 871.08,-745.51 871.20,-748.10 871.64,-750.66 872.00,-751.91 872.46,-753.13 873.01,-754.30 873.67,-755.42 874.41,-756.48 875.25,-757.48 876.17,-758.40 878.20,-760.01 880.44,-761.33 882.81,-762.40 885.27,-763.24 887.81,-763.89"/>
    </edge>
    <edge id=":49_3" function="internal">
        <lane id=":49_3_0" index="0" disallow="pedestrian tram rail_urban rail rail_electric rail_fast ship" speed="11.15" length="28.24" width="3.50" shape="888.57,-760.48 886.36,-759.91 884.25,-759.19 882.24,-758.29 880.37,-757.19 878.68,-755.84 877.97,-755.12 877.30,-754.32 876.69,-753.48 876.17,-752.58 875.73,-751.63 875.36,-750.65 875.07,-749.67 874.70,-747.52 874.60,-745.34 874.72,-743.14 875.25,-739.80"/>
    </edge>
    <edge id=":49_4" function="internal">
        <lane id=":49_4_0" index="0" disallow="pedestrian tram rail_urban rail rail_electric rail_fast ship" speed="36.11" length="39.13" width="3.50" shape="888.57,-760.48 865.40,-755.51 850.27,-752.48"/>
    </edge>
    <edge id=":49_5" function="internal">
        <lane id=":49_5_0" index="0" disallow="pedestrian tram rail_urban rail rail_electric rail_fast ship" speed="12.42" length="34.76" width="3.50" shape="888.57,-760.48 884.74,-759.84 882.18,-759.68 879.61,-759.79 877.07,-760.21 874.63,-760.99 873.46,-761.53 872.33,-762.15 871.26,-762.87 870.26,-763.67 868.44,-765.49 866.89,-767.54 865.60,-769.76 864.53,-772.10 863.27,-775.74 862.93,-777.01"/>
    </edge>
    <edge id=":49_6" function="internal">
        <lane id=":49_6_0" index="0" disallow="pedestrian tram rail_urban rail rail_electric rail_fast ship" speed="11.44" length="29.29" width="3.50" shape="866.32,-777.87 866.62,-776.79 867.72,-773.57 868.63,-771.57 869.72,-769.69 871.01,-767.97 872.52,-766.45 873.31,-765.82 874.17,-765.24 875.08,-764.73 876.00,-764.31 878.03,-763.65 880.13,-763.29 882.29,-763.20 884.47,-763.33 887.81,-763.89"/>
    </edge>
    <edge id=":49_7" function="internal">
        <lane id=":49_7_0" index="0" disallow="pedestrian tram rail_urban rail rail_electric rail_fast ship" speed="36.11" length="39.11" width="3.50" shape="866.32,-777.87 866.58,-776.85 871.22,-757.87 875.25,-739.80"/>
    </edge>
    <edge id=":49_8" function="internal">
        <lane id=":49_8_0" index="0" disallow="pedestrian tram rail_urban rail rail_electric rail_fast ship" speed="12.06" length="34.94" width="3.50" shape="866.32,-777.87 867.12,-773.90 867.38,-771.23 867.37,-768.54 867.00,-765.88 866.67,-764.58 866.23,-763.31 865.68,-762.08 865.01,-760.91 864.24,-759.82 863.37,-758.79 862.41,-757.85 861.38,-757.00 859.13,-755.53 856.71,-754.36 854.18,-753.46 850.27,-752.48"/>
    </edge>
    <edge id=":49_9" function="internal">
        <lane id=":49_9_0" index="0" disallow="pedestrian tram rail_urban rail rail_electric rail_fast ship" speed="11.05" length="29.16" width="3.50" shape="849.58,-755.91 853.00,-756.76 855.15,-757.53 857.18,-758.51 859.06,-759.74 859.88,-760.41 860.65,-761.17 861.34,-761.98 861.95,-762.85 862.48,-763.78 862.92,-764.75 863.27,-765.77 863.53,-766.79 863.84,-769.02 863.85,-771.28 863.63,-773.54 862.93,-777.01"/>
    </edge>
    <edge id=":49_10" function="internal">
        <lane id=":49_10_0" index="0" disallow="pedestrian tram rail_urban rail rail_electric rail_fast ship" speed="36.11" length="39.05" width="3.50" shape="849.58,-755.91 864.69,-758.94 887.81,-763.89"/>
    </edge>
    <edge id=":49_11" function="internal">
        <lane id=":49_11_0" index="0" disallow="pedestrian tram rail_urban rail rail_electric rail_fast ship" speed="12.32" length="34.54" width="3.50" shape="849.58,-755.91 850.84,-756.14 854.50,-756.55 857.02,-756.59 859.56,-756.37 862.09,-755.85 864.52,-754.99 865.73,-754.40 866.87,-753.72 867.94,-752.95 868.95,-752.09 869.88,-751.16 870.75,-750.14 872.20,-748.03 873.37,-745.76 874.28,-743.39 875.25,-739.80"/>
    </edge>
    <edge id=":50_0" function="internal">
        <lane id=":50_0_0" index="0" disallow="pedestrian tram rail_urban rail rail_electric rail_fast ship" speed="36.11" length="3.00" width="3.50" shape="944.47,-693.64 947.41,-694.25"/>
    </edge>
    <edge id=":52_0" function="internal">
        <lane id=":52_0_0" index="0" disallow="pedestrian tram rail_urban rail rail_electric rail_fast ship" speed="36.11" length="36.82" width="3.50" shape="888.59,-663.52 884.63,-679.89 880.28,-699.39"/>
    </edge>
    <edge id=":52_1" function="internal">
        <lane id=":52_1_0" index="0" disallow="pedestrian tram rail_urban rail rail_electric rail_fast ship" speed="9.24" length="19.81" width="3.50" shape="888.59,-663.52 888.01,-666.42 887.77,-669.36 887.89,-671.73 888.35,-674.05 888.95,-675.72 889.78,-677.29 890.81,-678.73 892.47,-680.41 893.66,-681.29"/>
    </edge>
    <edge id=":52_2" function="internal">
        <lane id=":52_2_0" index="0" disallow="pedestrian tram rail_urban rail rail_electric rail_fast ship" speed="8.80" length="17.20" width="3.50" shape="883.70,-700.14 884.59,-696.76 885.61,-694.03 886.96,-691.45 888.32,-689.57 889.96,-687.91 891.36,-686.87 892.66,-686.17"/>
    </edge>
    <edge id=":52_3" function="internal">
        <lane id=":52_3_0" index="0" disallow="pedestrian tram rail_urban rail rail_electric rail_fast ship" speed="36.11" length="36.72" width="3.50" shape="883.70,-700.14 888.04,-680.68 891.98,-664.37"/>
    </edge>
    <edge id=":52_4" function="internal">
        <lane id=":52_4_0" index="0" disallow="pedestrian tram rail_urban rail rail_electric rail_fast ship" speed="8.57" length="16.68" width="3.50" shape="877.84,-683.49 878.67,-684.53 879.56,-686.07 880.22,-687.71 880.77,-690.01 880.99,-692.36 880.91,-695.32 880.40,-698.83 880.28,-699.39"/>
    </edge>
    <edge id=":52_5" function="internal">
        <lane id=":52_5_0" index="0" disallow="pedestrian tram rail_urban rail rail_electric rail_fast ship" speed="36.11" length="15.13" width="3.50" shape="878.41,-680.38 892.88,-683.13 893.27,-683.21"/>
    </edge>
    <edge id=":52_6" function="internal">
        <lane id=":52_6_0" index="0" disallow="pedestrian tram rail_urban rail rail_electric rail_fast ship" speed="9.78" length="20.52" width="3.50" shape="878.75,-678.46 879.65,-678.29 881.84,-677.56 883.91,-676.53 885.79,-675.20 887.45,-673.60 888.85,-671.77 890.01,-669.78 891.15,-667.13 891.98,-664.37"/>
    </edge>
    <edge id=":53_0" function="internal">
        <lane id=":53_0_0" index="0" disallow="pedestrian tram rail_urban rail rail_electric rail_fast ship" speed="11.32" length="28.93" width="3.50" shape="816.20,-727.64 815.59,-729.87 814.82,-732.03 813.87,-734.08 812.72,-735.98 811.33,-737.71 810.59,-738.45 809.77,-739.14 808.90,-739.75 807.98,-740.29 807.01,-740.75 806.00,-741.12 804.99,-741.42 802.80,-741.80 800.57,-741.90 798.32,-741.76 794.90,-741.20"/>
    </edge>
    <edge id=":53_1" function="internal">
        <lane id=":53_1_0" index="0" disallow="pedestrian tram rail_urban rail rail_electric rail_fast ship" speed="36.11" length="38.89" width="3.50" shape="816.20,-727.64 811.60,-747.58 807.76,-765.60"/>
    </edge>
    <edge id=":53_2" function="internal">
        <lane id=":53_2_0" index="0" disallow="pedestrian tram rail_urban rail rail_electric rail_fast ship" speed="11.99" length="34.14" width="3.50" shape="816.20,-727.64 815.51,-731.37 815.29,-733.95 815.35,-736.56 815.73,-739.15 816.09,-740.48 816.54,-741.75 817.11,-742.99 817.79,-744.17 818.58,-745.29 819.47,-746.32 820.44,-747.27 821.50,-748.15 823.69,-749.58 826.04,-750.72 828.48,-751.59 832.16,-752.51"/>
    </edge>
    <edge id=":53_3" function="internal">
        <lane id=":53_3_0" index="0" disallow="pedestrian tram rail_urban rail rail_electric rail_fast ship" speed="10.97" length="28.40" width="3.50" shape="832.83,-749.08 829.65,-748.29 827.60,-747.55 825.63,-746.59 823.80,-745.40 822.96,-744.70 822.18,-743.94 821.47,-743.11 820.84,-742.22 820.29,-741.27 819.84,-740.28 819.47,-739.25 819.19,-738.20 818.87,-736.04 818.82,-733.85 819.00,-731.68 819.61,-728.45"/>
    </edge>
    <edge id=":53_4" function="internal">
        <lane id=":53_4_0" index="0" disallow="pedestrian tram rail_urban rail rail_electric rail_fast ship" speed="36.11" length="38.74" width="3.50" shape="832.83,-749.08 808.20,-744.07 794.90,-741.20"/>
    </edge>
    <edge id=":53_5" function="internal">
        <lane id=":53_5_0" index="0" disallow="pedestrian tram rail_urban rail rail_electric rail_fast ship" speed="12.26" length="34.37" width="3.50" shape="832.83,-749.08 828.90,-748.52 826.26,-748.41 823.62,-748.57 821.02,-749.04 819.76,-749.42 818.52,-749.89 817.33,-750.46 816.19,-751.14 815.12,-751.91 814.11,-752.77 813.19,-753.71 811.56,-755.80 810.24,-758.09 809.20,-760.51 808.38,-763.03 807.76,-765.60"/>
    </edge>
    <edge id=":53_6" function="internal">
        <lane id=":53_6_0" index="0" disallow="pedestrian tram rail_urban rail rail_electric rail_fast ship" speed="11.26" length="28.83" width="3.50" shape="811.19,-766.31 811.73,-764.07 812.43,-761.90 813.32,-759.84 814.42,-757.93 815.77,-756.19 816.50,-755.45 817.31,-754.76 818.17,-754.14 819.09,-753.61 820.05,-753.14 821.05,-752.76 822.06,-752.46 824.25,-752.06 826.48,-751.93 828.73,-752.02 832.16,-752.51"/>
    </edge>
    <edge id=":53_7" function="internal">
        <lane id=":53_7_0" index="0" disallow="pedestrian tram rail_urban rail rail_electric rail_fast ship" speed="36.11" length="38.79" width="3.50" shape="811.19,-766.31 815.02,-748.34 819.61,-728.45"/>
    </edge>
    <edge id=":53_8" function="internal">
        <lane id=":53_8_0" index="0" disallow="pedestrian tram rail_urban rail rail_electric rail_fast ship" speed="36.11" length="38.83" width="3.50" shape="794.14,-744.61 807.48,-747.50 832.16,-752.51"/>
    </edge>
    <edge id=":53_9" function="internal">
        <lane id=":53_9_0" index="0" disallow="pedestrian tram rail_urban rail rail_electric rail_fast ship" speed="12.31" length="34.46" width="3.50" shape="794.14,-744.61 798.06,-745.26 800.71,-745.42 803.36,-745.30 805.97,-744.85 807.24,-744.49 808.48,-744.02 809.68,-743.46 810.82,-742.79 811.91,-742.03 812.92,-741.17 813.86,-740.24 815.52,-738.18 816.89,-735.91 818.01,-733.51 818.90,-731.01 819.61,-728.45"/>
    </edge>
    <edge id=":54_0" function="internal">
        <lane id=":54_0_0" index="0" disallow="pedestrian tram rail_urban rail rail_electric rail_fast ship" speed="9.17" length="18.07" width="3.50" shape="828.50,-691.40 829.62,-687.53 830.91,-684.31 832.28,-681.78 833.62,-679.89 835.19,-678.20 837.00,-676.77 837.66,-676.39"/>
    </edge>
    <edge id=":54_1" function="internal">
        <lane id=":54_1_0" index="0" disallow="pedestrian tram rail_urban rail rail_electric rail_fast ship" speed="12.05" length="34.48" width="3.50" shape="828.50,-691.40 829.20,-687.64 829.42,-685.03 829.37,-682.39 828.98,-679.77 828.62,-678.42 828.16,-677.13 827.59,-675.88 826.90,-674.68 826.10,-673.56 825.20,-672.51 824.22,-671.55 823.15,-670.67 820.93,-669.22 818.55,-668.07 816.09,-667.18 812.41,-666.26"/>
    </edge>
    <edge id=":54_2" function="internal">
        <lane id=":54_2_0" index="0" disallow="pedestrian tram rail_urban rail rail_electric rail_fast ship" speed="11.04" length="28.77" width="3.50" shape="811.71,-669.69 814.92,-670.49 817.00,-671.24 819.00,-672.20 820.85,-673.41 821.70,-674.12 822.49,-674.89 823.21,-675.73 823.85,-676.64 824.41,-677.60 824.87,-678.60 825.24,-679.65 825.52,-680.72 825.85,-682.91 825.89,-685.12 825.71,-687.33 825.10,-690.59"/>
    </edge>
    <edge id=":54_3" function="internal">
        <lane id=":54_3_0" index="0" disallow="pedestrian tram rail_urban rail rail_electric rail_fast ship" speed="36.11" length="26.77" width="3.50" shape="811.71,-669.69 819.66,-671.02 832.68,-672.63 838.22,-673.35"/>
    </edge>

    <edge id="23338" from="53" to="38" priority="3" type="highway.residential" spreadType="center" length="33.06" shape="811.90,-746.51 801.15,-797.99">
        <lane id="23338_0" index="0" disallow="pedestrian tram rail_urban rail rail_electric rail_fast ship" speed="36.11" length="33.06" width="3.50" customShape="1" shape="807.76,-765.60 804.45,-781.80 801.15,-797.99"/>
    </edge>
    <edge id="23339" from="47" to="53" priority="3" type="highway.residential" spreadType="center" length="33.06" shape="804.57,-798.69 815.32,-747.23">
        <lane id="23339_0" index="0" disallow="pedestrian tram rail_urban rail rail_electric rail_fast ship" speed="36.11" length="33.06" width="3.50" customShape="1" shape="804.57,-798.69 807.88,-782.50 811.19,-766.30"/>
    </edge>
    <edge id="23341" from="54" to="53" priority="3" type="highway.residential" spreadType="center" length="38.11" shape="823.56,-678.22 811.87,-746.63">
        <lane id="23341_0" index="0" disallow="pedestrian tram rail_urban rail rail_electric rail_fast ship" speed="36.11" length="38.11" width="3.50" customShape="1" shape="825.10,-690.59 820.65,-709.12 816.20,-727.65"/>
    </edge>
    <edge id="23342" from="53" to="54" priority="3" type="highway.residential" spreadType="center" length="38.12" shape="815.32,-747.22 827.01,-678.81">
        <lane id="23342_0" index="0" disallow="pedestrian tram rail_urban rail rail_electric rail_fast ship" speed="36.11" length="38.12" width="3.50" customShape="1" shape="819.61,-728.45 824.05,-709.93 828.51,-691.38"/>
    </edge>
    <edge id="23408" from="49" to="29" priority="3" type="highway.residential" spreadType="center" length="34.24" shape="867.39,-757.84 854.46,-810.19">
        <lane id="23408_0" index="0" disallow="pedestrian tram rail_urban rail rail_electric rail_fast ship" speed="36.11" length="34.24" width="3.50" customShape="1" shape="862.93,-777.01 858.70,-793.58 854.46,-810.19"/>
    </edge>
    <edge id="23409" from="43" to="49" priority="3" type="highway.residential" spreadType="center" length="34.25" shape="857.85,-811.04 870.78,-758.68">
        <lane id="23409_0" index="0" disallow="pedestrian tram rail_urban rail rail_electric rail_fast ship" speed="36.11" length="34.25" width="3.50" customShape="1" shape="857.85,-811.04 862.09,-794.45 866.33,-777.86"/>
    </edge>
    <edge id="23411" from="52" to="49" priority="3" type="highway.residential" spreadType="center" length="40.57" shape="884.29,-681.43 867.36,-757.93">
        <lane id="23411_0" index="0" disallow="pedestrian tram rail_urban rail rail_electric rail_fast ship" speed="36.11" length="40.57" width="3.50" customShape="1" shape="880.28,-699.39 876.06,-719.23 871.83,-739.07"/>
    </edge>
    <edge id="23412" from="49" to="52" priority="3" type="highway.residential" spreadType="center" length="40.57" shape="870.78,-758.69 887.71,-682.19">
        <lane id="23412_0" index="0" disallow="pedestrian tram rail_urban rail rail_electric rail_fast ship" speed="36.11" length="40.57" width="3.50" customShape="1" shape="875.25,-739.80 879.48,-719.96 883.71,-700.12"/>
    </edge>
    <edge id="23414" from="48" to="52" priority="3" type="highway.residential" spreadType="center" length="57.83" shape="910.80,-590.60 884.30,-681.39">
        <lane id="23414_0" index="0" disallow="pedestrian tram rail_urban rail rail_electric rail_fast ship" speed="36.11" length="57.83" width="3.50" customShape="1" shape="902.64,-607.42 895.61,-635.47 888.59,-663.52"/>
    </edge>
    <edge id="23415" from="52" to="48" priority="3" type="highway.residential" spreadType="center" length="57.84" shape="887.66,-682.37 914.16,-591.58">
        <lane id="23415_0" index="0" disallow="pedestrian tram rail_urban rail rail_electric rail_fast ship" speed="36.11" length="57.84" width="3.50" customShape="1" shape="891.98,-664.37 899.01,-636.32 906.04,-608.27"/>
    </edge>
    <edge id="23417" from="44" to="48" priority="3" type="highway.residential" spreadType="center" length="46.13" shape="923.71,-527.66 910.75,-590.78">
        <lane id="23417_0" index="0" disallow="pedestrian tram rail_urban rail rail_electric rail_fast ship" speed="36.11" length="46.13" width="3.50" customShape="1" shape="923.71,-527.66 917.73,-549.94 911.77,-572.22"/>
    </edge>
    <edge id="23418" from="48" to="41" priority="3" type="highway.residential" spreadType="center" length="46.12" shape="914.18,-591.49 927.08,-528.57">
        <lane id="23418_0" index="0" disallow="pedestrian tram rail_urban rail rail_electric rail_fast ship" speed="36.11" length="46.12" width="3.50" customShape="1" shape="915.15,-573.12 921.12,-550.85 927.08,-528.57"/>
    </edge>
    <edge id="23589" from="54" to="52" priority="3" type="highway.residential" spreadType="center" length="40.80">
        <lane id="23589_0" index="0" disallow="pedestrian tram rail_urban rail rail_electric rail_fast ship" speed="36.11" length="40.80" width="3.50" customShape="1" shape="838.28,-672.99 858.15,-676.61 878.42,-680.30"/>
    </edge>
    <edge id="23591" from="52" to="50" priority="3" type="highway.residential" spreadType="center" length="52.26">
        <lane id="23591_0" index="0" disallow="pedestrian tram rail_urban rail rail_electric rail_fast ship" speed="36.11" length="52.26" width="3.50" customShape="1" shape="893.27,-683.17 924.85,-689.63 944.47,-693.64"/>
    </edge>
    <edge id="23609" from="54" to="21" priority="3" type="highway.residential" spreadType="center" length="48.07" shape="825.87,-676.91 765.23,-657.07">
        <lane id="23609_0" index="0" disallow="pedestrian tram rail_urban rail rail_electric rail_fast ship" speed="36.11" length="48.07" width="3.50" customShape="1" shape="812.41,-666.26 788.80,-661.66 765.23,-657.07"/>
    </edge>
    <edge id="23610" from="28" to="54" priority="3" type="highway.residential" spreadType="center" length="48.08" shape="764.55,-660.50 824.78,-680.24">
        <lane id="23610_0" index="0" disallow="pedestrian tram rail_urban rail rail_electric rail_fast ship" speed="36.11" length="48.08" width="3.50" customShape="1" shape="764.55,-660.50 788.13,-665.09 811.74,-669.69"/>
    </edge>
    <edge id="23674" from="45" to="48" priority="3" type="highway.residential" spreadType="center" length="81.02">
        <lane id="23674_0" index="0" disallow="pedestrian tram rail_urban rail rail_electric rail_fast ship" speed="36.11" length="81.02" width="3.50" customShape="1" shape="995.10,-609.70 990.53,-608.68 916.04,-591.99"/>
    </edge>
    <edge id="23694" from="53" to="36" priority="3" type="highway.residential" spreadType="center" length="58.57" shape="814.01,-745.23 737.71,-728.57">
        <lane id="23694_0" index="0" disallow="pedestrian tram rail_urban rail rail_electric rail_fast ship" speed="36.11" length="58.57" width="3.50" customShape="1" shape="794.90,-741.20 766.31,-734.88 737.71,-728.57"/>
    </edge>
    <edge id="23695" from="46" to="53" priority="3" type="highway.residential" spreadType="center" length="58.57" shape="736.95,-731.98 813.26,-748.64">
        <lane id="23695_0" index="0" disallow="pedestrian tram rail_urban rail rail_electric rail_fast ship" speed="36.11" length="58.57" width="3.50" customShape="1" shape="736.95,-731.98 765.55,-738.30 794.14,-744.61"/>
    </edge>
    <edge id="23697" from="49" to="53" priority="3" type="highway.residential" spreadType="center" length="17.77" shape="869.42,-756.60 813.90,-745.20">
        <lane id="23697_0" index="0" disallow="pedestrian tram rail_urban rail rail_electric rail_fast ship" speed="36.11" length="17.77" width="3.50" customShape="1" shape="850.27,-752.48 841.55,-750.78 832.83,-749.08"/>
    </edge>
    <edge id="23698" from="53" to="49" priority="3" type="highway.residential" spreadType="center" length="17.77" shape="813.19,-748.63 868.72,-760.03">
        <lane id="23698_0" index="0" disallow="pedestrian tram rail_urban rail rail_electric rail_fast ship" speed="36.11" length="17.77" width="3.50" customShape="1" shape="832.16,-752.51 840.88,-754.22 849.60,-755.92"/>
    </edge>
    <edge id="23700" from="42" to="49" priority="3" type="highway.residential" spreadType="center" length="40.82" shape="928.40,-769.37 869.39,-756.59">
        <lane id="23700_0" index="0" disallow="pedestrian tram rail_urban rail rail_electric rail_fast ship" speed="36.11" length="40.82" width="3.50" customShape="1" shape="928.40,-769.37 908.47,-764.92 888.56,-760.48"/>
    </edge>
    <edge id="23701" from="49" to="30" priority="3" type="highway.residential" spreadType="center" length="40.81" shape="868.65,-760.01 927.64,-772.78">
        <lane id="23701_0" index="0" disallow="pedestrian tram rail_urban rail rail_electric rail_fast ship" speed="36.11" length="40.81" width="3.50" customShape="1" shape="887.81,-763.89 907.71,-768.34 927.64,-772.78"/>
    </edge>
    <edge id="24411" from="50" to="51" priority="3" type="highway.residential" spreadType="center" length="32.30">
        <lane id="24411_0" index="0" disallow="pedestrian tram rail_urban rail rail_electric rail_fast ship" speed="36.11" length="32.30" width="3.50" customShape="1" shape="947.41,-694.25 973.58,-699.79 979.00,-700.99"/>
    </edge>

    <junction id="21" type="dead_end" x="765.23" y="-657.07" incLanes="23609_0" intLanes="" shape="765.56,-655.35 764.89,-658.78" rightOfWay="edgePriority"/>
    <junction id="28" type="dead_end" x="764.55" y="-660.50" incLanes="" intLanes="" shape="764.88,-658.78 764.22,-662.22" rightOfWay="edgePriority"/>
    <junction id="29" type="dead_end" x="854.46" y="-810.19" incLanes="23408_0" intLanes="" shape="852.77,-809.75 856.16,-810.62" rightOfWay="edgePriority"/>
    <junction id="30" type="dead_end" x="927.64" y="-772.78" incLanes="23701_0" intLanes="" shape="927.26,-774.49 928.02,-771.07" rightOfWay="edgePriority"/>
    <junction id="36" type="dead_end" x="737.71" y="-728.57" incLanes="23694_0" intLanes="" shape="738.09,-726.86 737.34,-730.28" rightOfWay="edgePriority"/>
    <junction id="38" type="dead_end" x="801.15" y="-797.99" incLanes="23338_0" intLanes="" shape="799.43,-797.64 802.86,-798.34" rightOfWay="edgePriority"/>
    <junction id="41" type="dead_end" x="927.08" y="-528.57" incLanes="23418_0" intLanes="" shape="928.77,-529.02 925.39,-528.12" rightOfWay="edgePriority"/>
    <junction id="42" type="dead_end" x="928.40" y="-769.37" incLanes="" intLanes="" shape="928.01,-771.07 928.78,-767.66" rightOfWay="edgePriority"/>
    <junction id="43" type="dead_end" x="857.85" y="-811.04" incLanes="" intLanes="" shape="856.16,-810.61 859.55,-811.47" rightOfWay="edgePriority"/>