<routes>
	<vehicle depart="0.1" departLane="0" departPos="22.696033924133772" departSpeed="6.8543983" id="37" type="bicycle">
		<route edges=":49_3 23412 23591"/>
	</vehicle>
	<vehicle depart="0.1" departLane="0" departPos="24.405265889301976" departSpeed="1.6658806" id="32" type="passenger">
		<route edges="23409 23697"/>
	</vehicle>
	<vehicle depart="0.1" departLane="0" departPos="30.247477211800497" departSpeed="1.0719683" id="313" type="passenger">
		<route edges="23409 23697"/>
	</vehicle>
	<vehicle depart="0.1" departLane="0" departPos="5.781598583088704" departSpeed="1.7436655" id="324" type="passenger">
		<route edges=":49_0 23697"/>
	</vehicle>
	<vehicle depart="0.1" departLane="0" departPos="23.51565974533551" departSpeed="9.0081426" id="336" type="passenger">
		<route edges=":49_4 23697 23342"/>
	</vehicle>
	<vehicle depart="0.1" departLane="0" departPos="7.179783350899172" departSpeed="8.8697337" id="343" type="passenger">
		<route edges=":49_5 23408"/>
	</vehicle>
	<vehicle depart="0.1" departLane="0" departPos="7.291935567621001" departSpeed="0.69391716" id="349" type="passenger">
		<route edges=":49_9 23408"/>
	</vehicle>
	<vehicle depart="0.1" departLane="0" departPos="8.415191408046962" departSpeed="1.6993588" id="353" type="passenger">
		<route edges="23698 23412"/>
	</vehicle>
	<vehicle depart="0.1" departLane="0" departPos="41.21381699077916" departSpeed="6.2518466" id="368" type="passenger">
		<route edges="23700 23697"/>
	</vehicle>
</routes>
