<routes>
	<vehicle depart="0.1" departLane="0" departPos="8.592268901938223" departSpeed="1.6115131" id="332" type="bicycle">
		<route edges="67253 67312"/>
	</vehicle>
	<vehicle depart="0.1" departLane="0" departPos="37.1406809212638" departSpeed="1.3850235" id="32" type="passenger">
		<route edges="67253 67256"/>
	</vehicle>
	<vehicle depart="0.1" departLane="0" departPos="22.200835414508948" departSpeed="0.46106733" id="35" type="passenger">
		<route edges="67253 67312"/>
	</vehicle>
	<vehicle depart="0.1" departLane="0" departPos="14.640012992345255" departSpeed="1.1005104" id="310" type="passenger">
		<route edges="67253 67312"/>
	</vehicle>
	<vehicle depart="0.1" departLane="0" departPos="2.5" departSpeed="1.7996996" id="314" type="passenger">
		<route edges=":37_5 67256"/>
	</vehicle>
	<vehicle depart="0.1" departLane="0" departPos="20.64354699814272" departSpeed="1.4489216" id="326" type="passenger">
		<route edges=":37_5 67256"/>
	</vehicle>
	<vehicle depart="0.1" departLane="0" departPos="4.839108329478763" departSpeed="1.2044433" id="347" type="passenger">
		<route edges="67253 67312"/>
	</vehicle>
	<vehicle depart="0.1" departLane="0" departPos="24.63000369142241" departSpeed="1.3150753" id="34" type="motorcycle">
		<route edges="67253 67312"/>
	</vehicle>
</routes>
