<!-- generated on Tue Feb  9 22:09:44 2021 by Eclipse SUMO netconvert Version 1.8.0
<configuration xmlns:xsi="http://www.w3.org/2001/XMLSchema-instance" xsi:noNamespaceSchemaLocation="http://sumo.dlr.de/xsd/netconvertConfiguration.xsd">

    <input>
        <node-files value="./converted_scenarios/scenario-factory/DEU_Guetersloh-11_3_I-1-1/DEU_Guetersloh-11_3_I-1-1.nod.xml"/>
        <edge-files value="./converted_scenarios/scenario-factory/DEU_Guetersloh-11_3_I-1-1/DEU_Guetersloh-11_3_I-1-1.edg.xml"/>
        <connection-files value="./converted_scenarios/scenario-factory/DEU_Guetersloh-11_3_I-1-1/DEU_Guetersloh-11_3_I-1-1.con.xml"/>
        <tllogic-files value="./converted_scenarios/scenario-factory/DEU_Guetersloh-11_3_I-1-1/DEU_Guetersloh-11_3_I-1-1.tll.xml"/>
        <type-files value="/home/zen/commonroad-interactive-benchmarks/install/commonroad-map-tool/crmapconverter/sumo_map/templates/DEU.typ.xml"/>
    </input>

    <output>
        <output-file value="./converted_scenarios/scenario-factory/DEU_Guetersloh-11_3_I-1-1/DEU_Guetersloh-11_3_I-1-1.net.xml"/>
    </output>

    <processing>
        <geometry.remove.keep-edges.explicit value="true"/>
        <geometry.avoid-overlap value="true"/>
        <offset.disable-normalization value="true"/>
    </processing>

    <junctions>
        <no-turnarounds value="true"/>
        <junctions.internal-link-detail value="20"/>
    </junctions>

    <report>
        <aggregate-warnings value="5"/>
    </report>

    <random_number>
        <seed value="1234"/>
    </random_number>

</configuration>
--><net xmlns:xsi="http://www.w3.org/2001/XMLSchema-instance" version="1.6" junctionCornerDetail="5" junctionLinkDetail="20" limitTurnSpeed="5.50" xsi:noNamespaceSchemaLocation="http://sumo.dlr.de/xsd/net_file.xsd">

    <location netOffset="0.00,0.00" convBoundary="-531.04,-762.65,-277.23,-547.75" origBoundary="-531.04,-762.65,-277.23,-547.75" projParameter="!"/>

    <type id="highway.bridleway" priority="1" speed="2.78" allow="pedestrian" oneway="1" width="2.00"/>
    <type id="highway.bus_guideway" priority="1" speed="27.78" allow="bus" oneway="1"/>
    <type id="highway.cycleway" priority="1" speed="8.33" allow="bicycle" oneway="0" width="1.00"/>
    <type id="highway.footway" priority="1" speed="2.78" allow="pedestrian" oneway="1" width="2.00"/>
    <type id="highway.ford" priority="1" speed="2.78" allow="army" oneway="0"/>
    <type id="highway.living_street" priority="2" speed="2.78" disallow="tram rail_urban rail rail_electric rail_fast ship" oneway="0"/>
    <type id="highway.motorway" priority="14" speed="39.44" allow="private emergency authority army vip passenger hov taxi bus coach delivery truck trailer motorcycle evehicle custom1 custom2" oneway="1"/>
    <type id="highway.motorway_link" priority="9" speed="22.22" allow="private emergency authority army vip passenger hov taxi bus coach delivery truck trailer motorcycle evehicle custom1 custom2" oneway="1"/>
    <type id="highway.path" priority="1" speed="2.78" allow="pedestrian bicycle" oneway="0" width="2.00"/>
    <type id="highway.pedestrian" priority="1" speed="2.78" allow="pedestrian" oneway="1" width="2.00"/>
    <type id="highway.primary" priority="12" speed="27.78" disallow="pedestrian tram rail_urban rail rail_electric rail_fast ship" oneway="0"/>
    <type id="highway.primary_link" priority="7" speed="22.22" disallow="pedestrian tram rail_urban rail rail_electric rail_fast ship" oneway="0"/>
    <type id="highway.raceway" priority="15" speed="83.33" allow="vip" oneway="0"/>
    <type id="highway.residential" priority="3" speed="13.89" disallow="pedestrian tram rail_urban rail rail_electric rail_fast ship" oneway="0"/>
    <type id="highway.secondary" priority="11" speed="27.78" disallow="pedestrian tram rail_urban rail rail_electric rail_fast ship" oneway="0"/>
    <type id="highway.secondary_link" priority="6" speed="22.22" disallow="pedestrian tram rail_urban rail rail_electric rail_fast ship" oneway="0"/>
    <type id="highway.service" priority="1" speed="5.56" allow="pedestrian delivery bicycle" oneway="0"/>
    <type id="highway.stairs" priority="1" speed="1.39" allow="pedestrian" oneway="1" width="2.00"/>
    <type id="highway.step" priority="1" speed="1.39" allow="pedestrian" oneway="1" width="2.00"/>
    <type id="highway.steps" priority="1" speed="1.39" allow="pedestrian" oneway="1" width="2.00"/>
    <type id="highway.tertiary" priority="10" speed="22.22" disallow="pedestrian tram rail_urban rail rail_electric rail_fast ship" oneway="0"/>
    <type id="highway.tertiary_link" priority="5" speed="22.22" disallow="pedestrian tram rail_urban rail rail_electric rail_fast ship" oneway="0"/>
    <type id="highway.track" priority="1" speed="5.56" allow="pedestrian motorcycle moped bicycle" oneway="0"/>
    <type id="highway.trunk" priority="13" speed="27.78" disallow="pedestrian bicycle tram rail_urban rail rail_electric rail_fast ship" oneway="0"/>
    <type id="highway.trunk_link" priority="8" speed="22.22" disallow="pedestrian bicycle tram rail_urban rail rail_electric rail_fast ship" oneway="0"/>
    <type id="highway.unclassified" priority="4" speed="13.89" disallow="pedestrian tram rail_urban rail rail_electric rail_fast ship" oneway="0"/>
    <type id="highway.unsurfaced" priority="1" speed="8.33" disallow="tram rail_urban rail rail_electric rail_fast ship" oneway="0"/>
    <type id="railway.highspeed" priority="21" speed="69.44" allow="rail_fast" oneway="1"/>
    <type id="railway.light_rail" priority="19" speed="27.78" allow="rail_urban" oneway="1"/>
    <type id="railway.preserved" priority="16" speed="27.78" allow="rail" oneway="1"/>
    <type id="railway.rail" priority="20" speed="44.44" allow="rail" oneway="1"/>
    <type id="railway.subway" priority="18" speed="27.78" allow="rail_urban" oneway="1"/>
    <type id="railway.tram" priority="17" speed="13.89" allow="tram" oneway="1"/>

    <edge id=":37_0" function="internal">
        <lane id=":37_0_0" index="0" disallow="pedestrian tram rail_urban rail rail_electric rail_fast ship" speed="10.78" length="29.35" width="3.50" shape="-457.95,-681.29 -460.99,-682.77 -463.11,-683.56 -465.29,-684.14 -467.53,-684.43 -468.66,-684.44 -469.78,-684.35 -470.89,-684.16 -471.98,-683.85 -473.02,-683.42 -474.02,-682.89 -474.95,-682.26 -475.82,-681.54 -476.63,-680.75 -478.04,-678.99 -479.23,-677.07 -480.22,-675.04 -481.05,-672.93"/>
    </edge>
    <edge id=":37_1" function="internal">
        <lane id=":37_1_0" index="0" disallow="pedestrian tram rail_urban rail rail_electric rail_fast ship" speed="36.11" length="38.76" width="3.50" shape="-457.95,-681.29 -479.03,-692.88 -491.82,-700.14"/>
    </edge>
    <edge id=":37_2" function="internal">
        <lane id=":37_2_0" index="0" disallow="pedestrian tram rail_urban rail rail_electric rail_fast ship" speed="36.11" length="38.62" width="3.50" shape="-490.04,-703.15 -477.30,-695.93 -456.29,-684.38"/>
    </edge>
    <edge id=":37_3" function="internal">
        <lane id=":37_3_0" index="0" disallow="pedestrian tram rail_urban rail rail_electric rail_fast ship" speed="13.13" length="34.74" width="3.50" shape="-490.04,-703.15 -487.94,-701.78 -485.98,-700.26 -484.19,-698.54 -482.60,-696.64 -481.25,-694.56 -480.19,-692.33 -479.43,-689.97 -478.96,-687.53 -478.78,-685.06 -478.86,-682.58 -479.37,-678.90 -480.27,-675.29 -481.05,-672.93"/>
    </edge>
    <edge id=":37_4" function="internal">
        <lane id=":37_4_0" index="0" disallow="pedestrian tram rail_urban rail rail_electric rail_fast ship" speed="12.20" length="29.86" width="3.50" shape="-484.34,-674.12 -483.65,-676.20 -482.85,-679.41 -482.38,-682.64 -482.31,-684.77 -482.45,-686.88 -482.83,-688.94 -483.45,-690.92 -484.33,-692.80 -485.45,-694.55 -486.79,-696.16 -488.31,-697.63 -490.00,-698.95 -491.82,-700.14"/>
    </edge>
    <edge id=":37_5" function="internal">
        <lane id=":37_5_0" index="0" disallow="pedestrian tram rail_urban rail rail_electric rail_fast ship" speed="11.82" length="35.51" width="3.50" shape="-484.34,-674.12 -483.37,-676.56 -482.21,-678.95 -480.80,-681.24 -479.10,-683.36 -478.09,-684.36 -477.00,-685.26 -475.83,-686.06 -474.56,-686.75 -473.23,-687.29 -471.85,-687.69 -470.45,-687.94 -469.04,-688.05 -467.61,-688.04 -464.91,-687.69 -462.30,-687.01 -459.79,-686.07 -456.29,-684.38"/>
    </edge>
    <edge id=":38_0" function="internal">
        <lane id=":38_0_0" index="0" disallow="pedestrian tram rail_urban rail rail_electric rail_fast ship" speed="11.06" length="28.26" width="3.50" shape="-339.80,-691.71 -342.72,-693.16 -344.76,-693.93 -346.86,-694.48 -349.01,-694.77 -350.10,-694.80 -351.18,-694.74 -352.26,-694.58 -353.32,-694.34 -354.35,-694.00 -355.35,-693.57 -356.30,-693.05 -358.08,-691.81 -359.68,-690.33 -361.09,-688.68 -362.34,-686.90 -363.46,-685.03"/>
    </edge>
    <edge id=":38_1" function="internal">
        <lane id=":38_1_0" index="0" disallow="pedestrian tram rail_urban rail rail_electric rail_fast ship" speed="12.26" length="34.24" width="3.50" shape="-339.80,-691.71 -343.13,-693.83 -345.19,-695.47 -347.07,-697.32 -348.69,-699.39 -349.39,-700.51 -349.99,-701.68 -350.49,-702.90 -350.88,-704.16 -351.16,-705.44 -351.33,-706.75 -351.39,-708.07 -351.21,-710.69 -350.69,-713.27 -349.88,-715.78 -348.86,-718.21 -347.66,-720.56"/>
    </edge>
    <edge id=":38_2" function="internal">
        <lane id=":38_2_0" index="0" disallow="pedestrian tram rail_urban rail rail_electric rail_fast ship" speed="11.26" length="28.71" width="3.50" shape="-344.59,-718.88 -345.65,-716.81 -346.53,-714.72 -347.22,-712.58 -347.66,-710.42 -347.81,-708.23 -347.76,-707.19 -347.63,-706.14 -347.40,-705.11 -347.09,-704.10 -346.69,-703.12 -346.21,-702.17 -345.66,-701.28 -344.30,-699.54 -342.73,-697.99 -340.98,-696.60 -338.08,-694.75"/>
    </edge>
    <edge id=":38_3" function="internal">
        <lane id=":38_3_0" index="0" disallow="pedestrian tram rail_urban rail rail_electric rail_fast ship" speed="36.11" length="38.75" width="3.50" shape="-344.59,-718.88 -354.03,-701.94 -363.46,-685.03"/>
    </edge>
    <edge id=":38_4" function="internal">
        <lane id=":38_4_0" index="0" disallow="pedestrian tram rail_urban rail rail_electric rail_fast ship" speed="36.11" length="38.74" width="3.50" shape="-366.52,-686.72 -357.09,-703.64 -347.66,-720.56"/>
    </edge>
    <edge id=":38_5" function="internal">
        <lane id=":38_5_0" index="0" disallow="pedestrian tram rail_urban rail rail_electric rail_fast ship" speed="12.07" length="33.87" width="3.50" shape="-366.52,-686.73 -365.23,-688.89 -363.76,-690.96 -362.09,-692.92 -360.17,-694.70 -358.03,-696.20 -356.82,-696.85 -355.58,-697.38 -354.30,-697.81 -352.98,-698.11 -351.65,-698.30 -350.31,-698.38 -348.94,-698.35 -346.37,-698.00 -343.86,-697.34 -341.46,-696.43 -338.08,-694.75"/>
    </edge>
    <edge id=":39_0" function="internal">
        <lane id=":39_0_0" index="0" disallow="pedestrian tram rail_urban rail rail_electric rail_fast ship" speed="11.17" length="28.74" width="3.50" shape="-396.96,-588.87 -399.03,-589.95 -401.11,-590.85 -403.24,-591.54 -405.40,-591.98 -407.59,-592.11 -408.62,-592.05 -409.66,-591.90 -410.69,-591.66 -411.68,-591.33 -412.65,-590.90 -413.59,-590.40 -414.46,-589.83 -416.17,-588.43 -417.68,-586.81 -419.04,-585.03 -420.86,-582.06"/>
    </edge>
    <edge id=":39_1" function="internal">
        <lane id=":39_1_0" index="0" disallow="pedestrian tram rail_urban rail rail_electric rail_fast ship" speed="12.18" length="34.32" width="3.50" shape="-396.96,-588.87 -400.33,-591.01 -402.41,-592.64 -404.31,-594.47 -405.96,-596.52 -406.68,-597.63 -407.30,-598.79 -407.83,-600.00 -408.24,-601.25 -408.55,-602.53 -408.74,-603.84 -408.81,-605.15 -408.66,-607.79 -408.15,-610.37 -407.34,-612.88 -406.30,-615.31 -405.07,-617.64"/>
    </edge>
    <edge id=":39_2" function="internal">
        <lane id=":39_2_0" index="0" disallow="pedestrian tram rail_urban rail rail_electric rail_fast ship" speed="11.18" length="28.74" width="3.50" shape="-402.02,-615.93 -403.10,-613.88 -403.99,-611.80 -404.68,-609.67 -405.11,-607.52 -405.23,-605.33 -405.17,-604.30 -405.01,-603.25 -404.77,-602.23 -404.44,-601.22 -404.02,-600.25 -403.51,-599.31 -402.94,-598.43 -401.55,-596.71 -399.95,-595.17 -398.19,-593.79 -395.25,-591.92"/>
    </edge>
    <edge id=":39_3" function="internal">
        <lane id=":39_3_0" index="0" disallow="pedestrian tram rail_urban rail rail_electric rail_fast ship" speed="36.11" length="38.76" width="3.50" shape="-402.02,-615.93 -407.69,-605.90 -420.86,-582.06"/>
    </edge>
    <edge id=":39_4" function="internal">
        <lane id=":39_4_0" index="0" disallow="pedestrian tram rail_urban rail rail_electric rail_fast ship" speed="36.11" length="38.78" width="3.50" shape="-423.92,-583.75 -410.74,-607.61 -405.07,-617.64"/>
    </edge>
    <edge id=":39_5" function="internal">
        <lane id=":39_5_0" index="0" disallow="pedestrian tram rail_urban rail rail_electric rail_fast ship" speed="12.18" length="34.35" width="3.50" shape="-423.92,-583.75 -421.85,-587.14 -420.25,-589.24 -418.44,-591.16 -416.40,-592.83 -415.30,-593.56 -414.14,-594.18 -412.93,-594.71 -411.68,-595.13 -410.39,-595.43 -409.09,-595.62 -407.77,-595.69 -405.14,-595.53 -402.55,-595.01 -400.04,-594.20 -397.61,-593.16 -395.25,-591.92"/>
    </edge>
    <edge id=":40_0" function="internal">
        <lane id=":40_0_0" index="0" disallow="pedestrian tram rail_urban rail rail_electric rail_fast ship" speed="36.11" length="38.59" width="3.50" shape="-376.65,-661.13 -393.94,-630.17 -395.48,-627.45"/>
    </edge>
    <edge id=":40_1" function="internal">
        <lane id=":40_1_0" index="0" disallow="pedestrian tram rail_urban rail rail_electric rail_fast ship" speed="12.38" length="35.04" width="3.50" shape="-376.64,-661.12 -378.71,-657.79 -380.29,-655.74 -382.07,-653.86 -384.06,-652.20 -386.27,-650.84 -387.44,-650.30 -388.66,-649.85 -389.91,-649.51 -391.18,-649.28 -392.47,-649.14 -395.06,-649.17 -397.62,-649.54 -400.13,-650.20 -402.56,-651.09 -406.10,-652.78"/>
    </edge>
    <edge id=":40_2" function="internal">
        <lane id=":40_2_0" index="0" disallow="pedestrian tram rail_urban rail rail_electric rail_fast ship" speed="11.39" length="29.50" width="3.50" shape="-404.44,-655.86 -401.34,-654.38 -399.25,-653.61 -397.13,-653.05 -394.98,-652.73 -392.82,-652.71 -391.80,-652.82 -390.77,-653.01 -389.76,-653.28 -388.78,-653.64 -387.86,-654.06 -386.02,-655.19 -384.37,-656.56 -382.86,-658.15 -381.52,-659.90 -379.71,-662.82"/>
    </edge>
    <edge id=":40_3" function="internal">
        <lane id=":40_3_0" index="0" disallow="pedestrian tram rail_urban rail rail_electric rail_fast ship" speed="12.12" length="34.36" width="3.50" shape="-404.44,-655.86 -401.02,-653.81 -398.89,-652.24 -396.93,-650.47 -395.18,-648.49 -394.42,-647.42 -393.74,-646.29 -393.15,-645.10 -392.68,-643.87 -392.31,-642.60 -392.07,-641.30 -391.94,-639.99 -391.92,-638.67 -392.19,-636.05 -392.81,-633.48 -393.72,-631.00 -394.85,-628.61 -395.48,-627.45"/>
    </edge>
    <edge id=":40_4" function="internal">
        <lane id=":40_4_0" index="0" disallow="pedestrian tram rail_urban rail rail_electric rail_fast ship" speed="11.11" length="28.70" width="3.50" shape="-398.53,-629.17 -397.99,-630.17 -397.01,-632.24 -396.24,-634.34 -395.72,-636.48 -395.50,-638.66 -395.52,-639.70 -395.63,-640.75 -395.83,-641.78 -396.12,-642.79 -396.51,-643.77 -396.98,-644.72 -397.54,-645.63 -398.15,-646.49 -399.62,-648.16 -401.29,-649.65 -403.10,-650.98 -406.10,-652.78"/>
    </edge>
    <edge id=":40_5" function="internal">
        <lane id=":40_5_0" index="0" disallow="pedestrian tram rail_urban rail rail_electric rail_fast ship" speed="36.11" length="38.56" width="3.50" shape="-398.53,-629.17 -396.99,-631.89 -379.71,-662.82"/>
    </edge>

    <edge id="66934" from="40" to="38" priority="3" type="highway.residential" spreadType="center" length="27.32" shape="-394.85,-649.29 -351.35,-700.74">
        <lane id="66934_0" index="0" disallow="pedestrian tram rail_urban rail rail_electric rail_fast ship" speed="36.11" length="27.32" width="3.50" customShape="1" shape="-379.71,-662.82 -373.12,-674.75 -366.51,-686.74"/>
    </edge>
    <edge id="66935" from="38" to="40" priority="3" type="highway.residential" spreadType="center" length="27.33" shape="-348.68,-698.48 -392.18,-647.03">
        <lane id="66935_0" index="0" disallow="pedestrian tram rail_urban rail rail_electric rail_fast ship" speed="36.11" length="27.33" width="3.50" customShape="1" shape="-363.46,-685.03 -370.06,-673.06 -376.66,-661.10"/>
    </edge>
    <edge id="66937" from="39" to="40" priority="3" type="highway.residential" spreadType="center" length="13.26" shape="-409.04,-597.16 -395.16,-648.71">
        <lane id="66937_0" index="0" disallow="pedestrian tram rail_urban rail rail_electric rail_fast ship" speed="36.11" length="13.26" width="3.50" customShape="1" shape="-405.07,-617.64 -401.80,-623.41 -398.53,-629.18"/>
    </edge>
    <edge id="66938" from="40" to="39" priority="3" type="highway.residential" spreadType="center" length="13.26" shape="-391.78,-647.80 -405.66,-596.25">
        <lane id="66938_0" index="0" disallow="pedestrian tram rail_urban rail rail_electric rail_fast ship" speed="36.11" length="13.26" width="3.50" customShape="1" shape="-395.48,-627.45 -398.76,-621.68 -402.03,-615.92"/>
    </edge>
    <edge id="67011" from="29" to="39" priority="3" type="highway.residential" spreadType="center" length="39.21" shape="-442.94,-549.48 -408.74,-597.75">
        <lane id="67011_0" index="0" disallow="pedestrian tram rail_urban rail rail_electric rail_fast ship" speed="36.11" length="39.21" width="3.50" customShape="1" shape="-442.94,-549.48 -435.68,-562.34 -423.91,-583.76"/>
    </edge>
    <edge id="67012" from="39" to="20" priority="3" type="highway.residential" spreadType="center" length="39.24" shape="-405.89,-595.73 -439.90,-547.75">
        <lane id="67012_0" index="0" disallow="pedestrian tram rail_urban rail rail_electric rail_fast ship" speed="36.11" length="39.24" width="3.50" customShape="1" shape="-420.86,-582.06 -432.63,-560.64 -439.90,-547.75"/>
    </edge>
    <edge id="67106" from="38" to="25" priority="3" type="highway.residential" spreadType="center" length="48.02" shape="-351.64,-700.27 -324.54,-762.65">
        <lane id="67106_0" index="0" disallow="pedestrian tram rail_urban rail rail_electric rail_fast ship" speed="36.11" length="48.02" width="3.50" customShape="1" shape="-347.66,-720.56 -336.09,-741.61 -324.54,-762.65"/>
    </edge>
    <edge id="67107" from="30" to="38" priority="3" type="highway.residential" spreadType="center" length="48.03" shape="-321.47,-760.97 -348.43,-698.87">
        <lane id="67107_0" index="0" disallow="pedestrian tram rail_urban rail rail_electric rail_fast ship" speed="36.11" length="48.03" width="3.50" customShape="1" shape="-321.47,-760.97 -333.03,-739.92 -344.59,-718.87"/>
    </edge>
    <edge id="67252" from="37" to="32" priority="3" type="highway.residential" spreadType="center" length="43.34" shape="-477.80,-684.49 -531.04,-717.81">
        <lane id="67252_0" index="0" disallow="pedestrian tram rail_urban rail rail_electric rail_fast ship" speed="36.11" length="43.34" width="3.50" customShape="1" shape="-491.82,-700.14 -500.40,-705.19 -508.69,-709.76 -515.82,-713.31 -519.93,-715.11 -523.71,-716.37 -527.09,-717.22 -531.04,-717.81"/>
    </edge>
    <edge id="67253" from="36" to="37" priority="3" type="highway.residential" spreadType="center" length="44.81" shape="-530.62,-721.28 -475.95,-687.46">
        <lane id="67253_0" index="0" disallow="pedestrian tram rail_urban rail rail_electric rail_fast ship" speed="36.11" length="44.81" width="3.50" customShape="1" shape="-530.62,-721.28 -526.48,-720.67 -522.89,-719.78 -518.91,-718.46 -514.61,-716.60 -507.27,-712.96 -498.78,-708.29 -490.02,-703.14"/>
    </edge>
    <edge id="67255" from="40" to="37" priority="3" type="highway.residential" spreadType="center" length="59.21" shape="-394.18,-646.59 -477.63,-684.41">
        <lane id="67255_0" index="0" disallow="pedestrian tram rail_urban rail rail_electric rail_fast ship" speed="36.11" length="59.21" width="3.50" customShape="1" shape="-406.10,-652.78 -407.85,-653.72 -457.98,-681.31"/>
    </edge>
    <edge id="67256" from="37" to="40" priority="3" type="highway.residential" spreadType="center" length="59.18" shape="-476.19,-687.59 -392.73,-649.78">
        <lane id="67256_0" index="0" disallow="pedestrian tram rail_urban rail rail_electric rail_fast ship" speed="36.11" length="59.18" width="3.50" customShape="1" shape="-456.29,-684.38 -406.19,-656.80 -404.44,-655.86"/>
    </edge>
    <edge id="67311" from="35" to="37" priority="3" type="highway.residential" spreadType="center" length="70.05" shape="-530.40,-630.25 -478.17,-687.21">
        <lane id="67311_0" index="0" disallow="pedestrian tram rail_urban rail rail_electric rail_fast ship" speed="36.11" length="70.05" width="3.50" customShape="1" shape="-530.40,-630.25 -528.62,-634.90 -526.91,-638.62 -525.38,-641.28 -523.90,-643.37 -522.22,-645.31 -520.34,-647.04 -519.11,-647.96 -517.80,-648.76 -516.38,-649.35 -514.39,-649.83 -511.84,-650.02 -508.26,-649.84 -505.71,-649.66 -503.66,-649.63 -502.13,-649.77 -500.64,-650.14 -499.27,-650.81 -496.83,-652.69 -494.62,-654.81 -492.63,-657.16 -490.60,-660.11 -488.61,-663.70 -486.71,-667.89 -484.32,-674.17"/>
    </edge>
    <edge id="67312" from="37" to="34" priority="3" type="highway.residential" spreadType="center" length="70.00" shape="-475.60,-684.84 -527.16,-628.94">
        <lane id="67312_0" index="0" disallow="pedestrian tram rail_urban rail rail_electric rail_fast ship" speed="36.11" length="70.00" width="3.50" customShape="1" shape="-481.05,-672.93 -483.45,-666.61 -485.40,-662.29 -487.45,-658.56 -489.54,-655.44 -491.60,-652.93 -493.90,-650.62 -496.40,-648.57 -497.93,-647.64 -499.62,-646.92 -501.36,-646.48 -503.62,-646.23 -506.34,-646.23 -509.93,-646.41 -512.33,-646.41 -514.12,-646.21 -515.33,-645.90 -516.44,-645.44 -517.52,-644.77 -519.33,-643.24 -520.92,-641.50 -522.32,-639.57 -523.78,-637.05 -525.44,-633.44 -527.16,-628.94"/>
    </edge>
    <edge id="67551" from="27" to="39" priority="3" type="highway.residential" spreadType="center" length="70.00" shape="-335.89,-554.68 -408.23,-595.19">
        <lane id="67551_0" index="0" disallow="pedestrian tram rail_urban rail rail_electric rail_fast ship" speed="36.11" length="70.00" width="3.50" customShape="1" shape="-335.89,-554.68 -396.97,-588.88"/>
    </edge>
    <edge id="67552" from="39" to="19" priority="3" type="highway.residential" spreadType="center" length="70.00" shape="-406.52,-598.25 -334.17,-557.73">
        <lane id="67552_0" index="0" disallow="pedestrian tram rail_urban rail rail_electric rail_fast ship" speed="36.11" length="70.00" width="3.50" customShape="1" shape="-395.25,-591.92 -334.17,-557.73"/>
    </edge>
    <edge id="68215" from="28" to="38" priority="3" type="highway.residential" spreadType="center" length="70.01" shape="-278.95,-657.11 -350.91,-698.11">
        <lane id="68215_0" index="0" disallow="pedestrian tram rail_urban rail rail_electric rail_fast ship" speed="36.11" length="70.01" width="3.50" customShape="1" shape="-278.95,-657.11 -286.06,-661.12 -339.81,-691.71"/>
    </edge>
    <edge id="68216" from="38" to="26" priority="3" type="highway.residential" spreadType="center" length="70.00" shape="-349.18,-701.15 -277.23,-660.15">
        <lane id="68216_0" index="0" disallow="pedestrian tram rail_urban rail rail_electric rail_fast ship" speed="36.11" length="70.00" width="3.50" customShape="1" shape="-338.08,-694.75 -284.34,-664.16 -277.23,-660.15"/>
    </edge>

    <junction id="19" type="dead_end" x="-334.17" y="-557.73" incLanes="67552_0" intLanes="" shape="-333.31,-559.25 -335.02,-556.20" rightOfWay="edgePriority"/>
    <junction id="20" type="dead_end" x="-439.90" y="-547.75" incLanes="67012_0" intLanes="" shape="-438.37,-546.89 -441.42,-548.61" rightOfWay="edgePriority"/>
    <junction id="25" type="dead_end" x="-324.54" y="-762.65" incLanes="67106_0" intLanes="" shape="-326.07,-763.49 -323.01,-761.81" rightOfWay="edgePriority"/>
    <junction id="26" type="dead_end" x="-277.23" y="-660.15" incLanes="68216_0" intLanes="" shape="-276.37,-661.68 -278.09,-658.63" rightOfWay="edgePriority"/>
    <junction id="27" type="dead_end" x="-335.89" y="-554.68" incLanes="" intLanes="" shape="-335.04,-556.21 -336.75,-553.16" rightOfWay="edgePriority"/>
    <junction id="28" type="dead_end" x="-278.95" y="-657.11" incLanes="" intLanes="" shape="-278.09,-658.63 -279.81,-655.58" rightOfWay="edgePriority"/>
    <junction id="29" type="dead_end" x="-442.94" y="-549.48" incLanes="" intLanes="" shape="-441.41,-548.62 -444.46,-550.34" rightOfWay="edgePriority"/>
    <junction id="30" type="dead_end" x="-321.47" y="-760.97" incLanes="" intLanes="" shape="-323.01,-761.81 -319.94,-760.12" rightOfWay="edgePriority"/>
    <junction id="32" type="dead_end" x="-531.04" y="-717.81" incLanes="67252_0" intLanes="" shape="-531.30,-716.08 -530.78,-719.54" rightOfWay="edgePriority"/>
    <junction id="34" type="dead_end" x="-527.16" y="-628.94" incLanes="67312_0" intLanes="" shape="-525.53,-628.31 -528.80,-629.56" rightOfWay="edgePriority"/>
    <junction id="35" type="dead_end" x="-530.40" y="-630.25" incLanes="" intLanes="" shape="-528.77,-629.63 -532.03,-630.88" rightOfWay="edgePriority"/>
    <junction id="36" type="dead_end" x="-530.62" y="-721.28" incLanes="" intLanes="" shape="-530.88,-719.55 -530.36,-723.01" rightOfWay="edgePriority"/>
    <junction id="37" type="priority" x="-476.91" y="-686.00" incLanes="67255_0 67253_0 67311_0" intLanes=":37_0_0 :37_1_0 :37_2_0 :37_3_0 :37_4_0 :37_5_0" shape="-458.82,-679.78 -455.45,-685.91 -489.16,-704.66 -492.71,-698.63 -488.93,-695.85 -486.21,-692.60 -484.56,-688.87 -483.96,-684.65 -484.43,-679.96 -485.96,-674.79 -479.42,-672.31 -477.20,-676.83 -474.50,-680.05 -471.31,-681.95 -467.63,-682.54 -463.47,-681.81">
        <request index="0" response="000000" foes="001000" cont="0"/>
        <request index="1" response="000000" foes="111000" cont="0"/>
        <request index="2" response="000000" foes="100000" cont="0"/>
        <request index="3" response="000011" foes="100011" cont="0"/>
        <request index="4" response="000010" foes="000010" cont="0"/>
        <request index="5" response="001110" foes="001110" cont="0"/>
    </junction>
    <junction id="38" type="priority" x="-350.02" y="-699.61" incLanes="68215_0 67107_0 66934_0" intLanes=":38_0_0 :38_1_0 :38_2_0 :38_3_0 :38_4_0 :38_5_0" shape="-340.68,-690.19 -337.22,-696.27 -341.14,-699.02 -343.89,-702.12 -345.45,-705.57 -345.84,-709.37 -345.04,-713.52 -343.06,-718.03 -349.19,-721.40 -368.05,-687.57 -361.92,-684.19 -359.22,-688.18 -356.19,-690.98 -352.81,-692.57 -349.10,-692.98 -345.06,-692.18">
        <request index="0" response="001000" foes="001000" cont="0"/>
        <request index="1" response="111000" foes="111000" cont="0"/>
        <request index="2" response="000000" foes="100000" cont="0"/>
        <request index="3" response="000000" foes="100011" cont="0"/>
        <request index="4" response="000000" foes="000010" cont="0"/>
        <request index="5" response="001100" foes="001110" cont="0"/>
    </junction>
    <junction id="39" type="priority" x="-407.35" y="-596.70" incLanes="67551_0 66938_0 67011_0" intLanes=":39_0_0 :39_1_0 :39_2_0 :39_3_0 :39_4_0 :39_5_0" shape="-397.81,-587.35 -394.39,-593.45 -398.44,-596.22 -401.27,-599.32 -402.89,-602.76 -403.31,-606.52 -402.51,-610.62 -400.51,-615.05 -406.60,-618.51 -425.46,-584.59 -419.32,-581.22 -416.60,-585.25 -413.54,-588.07 -410.13,-589.70 -406.37,-590.12 -402.26,-589.33">
        <request index="0" response="001000" foes="001000" cont="0"/>
        <request index="1" response="111000" foes="111000" cont="0"/>
        <request index="2" response="000000" foes="100000" cont="0"/>
        <request index="3" response="000000" foes="100011" cont="0"/>
        <request index="4" response="000000" foes="000010" cont="0"/>
        <request index="5" response="001100" foes="001110" cont="0"/>
    </junction>
    <junction id="40" type="priority" x="-393.49" y="-648.20" incLanes="66935_0 67256_0 66937_0" intLanes=":40_0_0 :40_1_0 :40_2_0 :40_3_0 :40_4_0 :40_5_0" shape="-375.11,-660.28 -381.24,-663.66 -384.03,-659.57 -387.19,-656.69 -390.73,-655.04 -394.64,-654.60 -398.94,-655.39 -403.61,-657.40 -406.93,-651.24 -402.71,-648.49 -399.72,-645.42 -397.96,-642.04 -397.43,-638.36 -398.13,-634.36 -400.05,-630.04 -393.96,-626.59">
        <request index="0" response="000000" foes="001000" cont="0"/>
        <request index="1" response="110000" foes="111000" cont="0"/>
        <request index="2" response="100000" foes="100000" cont="0"/>
        <request index="3" response="100011" foes="100011" cont="0"/>
        <request index="4" response="000000" foes="000010" cont="0"/>
        <request index="5" response="000000" foes="001110" cont="0"/>
    </junction>

    <connection from="66934" to="67106" fromLane="0" toLane="0" contPos="-4.00" shape="-366.51,-686.74 -357.09,-703.64 -347.66,-720.56" via=":38_4_0" dir="s" state="M"/>
    <connection from="66934" to="68216" fromLane="0" toLane="0" contPos="-4.00" shape="-366.51,-686.74 -365.23,-688.89 -363.76,-690.96 -362.09,-692.92 -360.17,-694.70 -358.03,-696.20 -356.82,-696.85 -355.58,-697.38 -354.30,-697.81 -352.98,-698.11 -351.65,-698.30 -350.31,-698.38 -348.94,-698.35 -346.37,-698.00 -343.86,-697.34 -341.46,-696.43 -338.08,-694.75" via=":38_5_0" dir="l" state="m"/>
    <connection from="66935" to="66938" fromLane="0" toLane="0" contPos="-4.00" shape="-376.66,-661.10 -393.94,-630.17 -395.48,-627.45" via=":40_0_0" dir="s" state="M"/>