<routes>
	<vehicle depart="0.1" departLane="0" departPos="20.032003829946515" departSpeed="4.9585751" id="1" type="passenger">
		<route edges="50201 50213 50197"/>
	</vehicle>
	<vehicle depart="0.1" departLane="0" departPos="97.17036736684132" departSpeed="1.9944936" id="2" type="passenger">
		<route edges="50195 50211 50199"/>
	</vehicle>
	<vehicle depart="0.1" departLane="0" departPos="144.00527528607375" departSpeed="1.6169693" id="4" type="passenger">
		<route edges="50205 50207 50197"/>
	</vehicle>
	<vehicle depart="0.1" departLane="0" departPos="152.00530260070096" departSpeed="6.4129635" id="5" type="passenger">
		<route edges="50205 50217 50199"/>
	</vehicle>
	<vehicle depart="0.1" departLane="0" departPos="12.029682145098992" departSpeed="3.2128615" id="7" type="passenger">
		<route edges="50201 50213 50197"/>
	</vehicle>
</routes>
