<!-- generated on Tue Feb  9 22:02:24 2021 by Eclipse SUMO netconvert Version 1.8.0
<configuration xmlns:xsi="http://www.w3.org/2001/XMLSchema-instance" xsi:noNamespaceSchemaLocation="http://sumo.dlr.de/xsd/netconvertConfiguration.xsd">

    <input>
        <node-files value="./converted_scenarios/scenario-factory/DEU_Backnang-3_2_I-1-1/DEU_Backnang-3_2_I-1-1.nod.xml"/>
        <edge-files value="./converted_scenarios/scenario-factory/DEU_Backnang-3_2_I-1-1/DEU_Backnang-3_2_I-1-1.edg.xml"/>
        <connection-files value="./converted_scenarios/scenario-factory/DEU_Backnang-3_2_I-1-1/DEU_Backnang-3_2_I-1-1.con.xml"/>
        <tllogic-files value="./converted_scenarios/scenario-factory/DEU_Backnang-3_2_I-1-1/DEU_Backnang-3_2_I-1-1.tll.xml"/>
        <type-files value="/home/zen/commonroad-interactive-benchmarks/install/commonroad-map-tool/crmapconverter/sumo_map/templates/DEU.typ.xml"/>
    </input>

    <output>
        <output-file value="./converted_scenarios/scenario-factory/DEU_Backnang-3_2_I-1-1/DEU_Backnang-3_2_I-1-1.net.xml"/>
    </output>

    <processing>
        <geometry.remove.keep-edges.explicit value="true"/>
        <geometry.avoid-overlap value="true"/>
        <offset.disable-normalization value="true"/>
    </processing>

    <junctions>
        <no-turnarounds value="true"/>
        <junctions.internal-link-detail value="20"/>
    </junctions>

    <report>
        <aggregate-warnings value="5"/>
    </report>

    <random_number>
        <seed value="1234"/>
    </random_number>

</configuration>
--><net xmlns:xsi="http://www.w3.org/2001/XMLSchema-instance" version="1.6" junctionCornerDetail="5" junctionLinkDetail="20" limitTurnSpeed="5.50" xsi:noNamespaceSchemaLocation="http://sumo.dlr.de/xsd/net_file.xsd">

    <location netOffset="0.00,0.00" convBoundary="-400.02,263.10,-181.39,486.88" origBoundary="-400.02,263.10,-181.39,486.88" projParameter="!"/>

    <type id="highway.bridleway" priority="1" speed="2.78" allow="pedestrian" oneway="1" width="2.00"/>
    <type id="highway.bus_guideway" priority="1" speed="27.78" allow="bus" oneway="1"/>
    <type id="highway.cycleway" priority="1" speed="8.33" allow="bicycle" oneway="0" width="1.00"/>
    <type id="highway.footway" priority="1" speed="2.78" allow="pedestrian" oneway="1" width="2.00"/>
    <type id="highway.ford" priority="1" speed="2.78" allow="army" oneway="0"/>
    <type id="highway.living_street" priority="2" speed="2.78" disallow="tram rail_urban rail rail_electric rail_fast ship" oneway="0"/>
    <type id="highway.motorway" priority="14" speed="39.44" allow="private emergency authority army vip passenger hov taxi bus coach delivery truck trailer motorcycle evehicle custom1 custom2" oneway="1"/>
    <type id="highway.motorway_link" priority="9" speed="22.22" allow="private emergency authority army vip passenger hov taxi bus coach delivery truck trailer motorcycle evehicle custom1 custom2" oneway="1"/>
    <type id="highway.path" priority="1" speed="2.78" allow="pedestrian bicycle" oneway="0" width="2.00"/>
    <type id="highway.pedestrian" priority="1" speed="2.78" allow="pedestrian" oneway="1" width="2.00"/>
    <type id="highway.primary" priority="12" speed="27.78" disallow="pedestrian tram rail_urban rail rail_electric rail_fast ship" oneway="0"/>
    <type id="highway.primary_link" priority="7" speed="22.22" disallow="pedestrian tram rail_urban rail rail_electric rail_fast ship" oneway="0"/>
    <type id="highway.raceway" priority="15" speed="83.33" allow="vip" oneway="0"/>
    <type id="highway.residential" priority="3" speed="13.89" disallow="pedestrian tram rail_urban rail rail_electric rail_fast ship" oneway="0"/>
    <type id="highway.secondary" priority="11" speed="27.78" disallow="pedestrian tram rail_urban rail rail_electric rail_fast ship" oneway="0"/>
    <type id="highway.secondary_link" priority="6" speed="22.22" disallow="pedestrian tram rail_urban rail rail_electric rail_fast ship" oneway="0"/>
    <type id="highway.service" priority="1" speed="5.56" allow="pedestrian delivery bicycle" oneway="0"/>
    <type id="highway.stairs" priority="1" speed="1.39" allow="pedestrian" oneway="1" width="2.00"/>
    <type id="highway.step" priority="1" speed="1.39" allow="pedestrian" oneway="1" width="2.00"/>
    <type id="highway.steps" priority="1" speed="1.39" allow="pedestrian" oneway="1" width="2.00"/>
    <type id="highway.tertiary" priority="10" speed="22.22" disallow="pedestrian tram rail_urban rail rail_electric rail_fast ship" oneway="0"/>
    <type id="highway.tertiary_link" priority="5" speed="22.22" disallow="pedestrian tram rail_urban rail rail_electric rail_fast ship" oneway="0"/>
    <type id="highway.track" priority="1" speed="5.56" allow="pedestrian motorcycle moped bicycle" oneway="0"/>
    <type id="highway.trunk" priority="13" speed="27.78" disallow="pedestrian bicycle tram rail_urban rail rail_electric rail_fast ship" oneway="0"/>
    <type id="highway.trunk_link" priority="8" speed="22.22" disallow="pedestrian bicycle tram rail_urban rail rail_electric rail_fast ship" oneway="0"/>
    <type id="highway.unclassified" priority="4" speed="13.89" disallow="pedestrian tram rail_urban rail rail_electric rail_fast ship" oneway="0"/>
    <type id="highway.unsurfaced" priority="1" speed="8.33" disallow="tram rail_urban rail rail_electric rail_fast ship" oneway="0"/>
    <type id="railway.highspeed" priority="21" speed="69.44" allow="rail_fast" oneway="1"/>
    <type id="railway.light_rail" priority="19" speed="27.78" allow="rail_urban" oneway="1"/>
    <type id="railway.preserved" priority="16" speed="27.78" allow="rail" oneway="1"/>
    <type id="railway.rail" priority="20" speed="44.44" allow="rail" oneway="1"/>
    <type id="railway.subway" priority="18" speed="27.78" allow="rail_urban" oneway="1"/>
    <type id="railway.tram" priority="17" speed="13.89" allow="tram" oneway="1"/>

    <edge id=":61_0" function="internal">
        <lane id=":61_0_0" index="0" disallow="pedestrian tram rail_urban rail rail_electric rail_fast ship" speed="11.10" length="28.56" width="3.50" shape="-251.16,342.33 -253.80,340.09 -255.63,338.83 -257.57,337.78 -259.62,337.00 -260.62,336.74 -261.66,336.56 -262.71,336.47 -263.76,336.47 -264.80,336.57 -265.84,336.76 -266.86,337.04 -267.84,337.39 -269.82,338.36 -271.67,339.57 -273.40,340.98 -275.84,343.40"/>
    </edge>
    <edge id=":61_1" function="internal">
        <lane id=":61_1_0" index="0" disallow="pedestrian tram rail_urban rail rail_electric rail_fast ship" speed="36.11" length="38.59" width="3.50" shape="-251.16,342.33 -274.54,319.98 -279.02,315.63"/>
    </edge>
    <edge id=":61_2" function="internal">
        <lane id=":61_2_0" index="0" disallow="pedestrian tram rail_urban rail rail_electric rail_fast ship" speed="36.11" length="38.51" width="3.50" shape="-276.58,313.12 -272.11,317.46 -248.78,339.77"/>
    </edge>
    <edge id=":61_3" function="internal">
        <lane id=":61_3_0" index="0" disallow="pedestrian tram rail_urban rail rail_electric rail_fast ship" speed="12.37" length="34.40" width="3.50" shape="-276.58,313.12 -274.87,314.90 -273.28,316.82 -271.85,318.90 -270.64,321.15 -269.71,323.57 -269.15,326.08 -269.01,327.43 -268.98,328.74 -269.06,330.06 -269.26,331.39 -269.90,333.87 -270.87,336.24 -272.08,338.46 -273.49,340.55 -275.84,343.40"/>
    </edge>
    <edge id=":61_4" function="internal">
        <lane id=":61_4_0" index="0" disallow="pedestrian tram rail_urban rail rail_electric rail_fast ship" speed="11.38" length="28.94" width="3.50" shape="-278.43,341.04 -276.38,338.56 -275.18,336.78 -274.15,334.90 -273.34,332.92 -272.80,330.84 -272.64,329.78 -272.58,328.71 -272.60,327.64 -272.70,326.57 -273.17,324.48 -273.94,322.48 -274.95,320.59 -276.17,318.82 -277.54,317.17 -279.02,315.63"/>
    </edge>
    <edge id=":61_5" function="internal">
        <lane id=":61_5_0" index="0" disallow="pedestrian tram rail_urban rail rail_electric rail_fast ship" speed="12.11" length="34.18" width="3.50" shape="-278.43,341.04 -275.63,338.26 -273.58,336.61 -271.38,335.17 -269.02,334.02 -267.78,333.57 -266.51,333.22 -265.22,332.99 -263.91,332.87 -262.60,332.86 -261.29,332.98 -259.99,333.20 -258.72,333.53 -256.27,334.48 -253.95,335.73 -251.79,337.21 -248.78,339.77"/>
    </edge>
    <edge id=":62_0" function="internal">
        <lane id=":62_0_0" index="0" disallow="pedestrian tram rail_urban rail rail_electric rail_fast ship" speed="36.11" length="24.97" width="3.49" shape="-264.08,432.57 -271.67,441.12 -276.31,446.74 -279.40,450.92 -279.98,451.80"/>
    </edge>
    <edge id=":62_1" function="internal">
        <lane id=":62_1_0" index="0" disallow="pedestrian tram rail_urban rail rail_electric rail_fast ship" speed="12.47" length="33.04" width="3.50" shape="-264.08,432.57 -266.72,435.15 -268.70,436.73 -270.85,438.09 -273.18,439.19 -275.66,439.97 -278.25,440.36 -280.85,440.35 -283.41,439.96 -285.87,439.25 -288.21,438.28 -290.43,437.10 -293.49,435.06"/>
    </edge>
    <edge id=":62_2" function="internal">
        <lane id=":62_2_0" index="0" disallow="pedestrian tram rail_urban rail rail_electric rail_fast ship" speed="11.48" length="27.86" width="3.50" shape="-291.42,432.24 -288.74,434.02 -286.85,435.03 -284.87,435.86 -282.81,436.46 -280.69,436.79 -278.55,436.80 -276.43,436.48 -274.38,435.85 -272.44,434.93 -270.63,433.78 -268.95,432.45 -266.66,430.21"/>
    </edge>
    <edge id=":62_3" function="internal">
        <lane id=":62_3_0" index="0" disallow="pedestrian tram rail_urban rail rail_electric rail_fast ship" speed="10.53" length="24.73" width="3.49" shape="-291.42,432.24 -287.34,435.47 -284.47,438.12 -282.70,440.03 -281.11,442.09 -280.41,443.19 -279.81,444.34 -279.33,445.55 -279.00,446.81 -278.88,448.10 -279.00,449.39 -279.38,450.64 -279.98,451.80"/>
    </edge>
    <edge id=":62_4" function="internal">
        <lane id=":62_4_0" index="0" disallow="pedestrian tram rail_urban rail rail_electric rail_fast ship" speed="9.42" length="19.32" width="3.50" shape="-282.85,449.78 -282.59,449.29 -282.40,448.53 -282.40,447.71 -282.57,446.85 -282.89,445.97 -283.33,445.09 -283.86,444.21 -284.46,443.37 -285.87,441.69 -287.41,440.11 -289.93,437.86 -293.49,435.06"/>
    </edge>
    <edge id=":62_5" function="internal">
        <lane id=":62_5_0" index="0" disallow="pedestrian tram rail_urban rail rail_electric rail_fast ship" speed="36.11" length="25.42" width="3.50" shape="-282.84,449.79 -282.30,448.97 -279.12,444.66 -274.38,438.91 -266.66,430.21"/>
    </edge>
    <edge id=":63_0" function="internal">
        <lane id=":63_0_0" index="0" disallow="pedestrian tram rail_urban rail rail_electric rail_fast ship" speed="36.11" length="31.33" width="3.50" shape="-317.74,417.10 -332.75,405.78 -341.75,398.64 -342.55,397.97"/>
    </edge>
    <edge id=":63_1" function="internal">
        <lane id=":63_1_0" index="0" disallow="pedestrian tram rail_urban rail rail_electric rail_fast ship" speed="11.88" length="34.97" width="3.50" shape="-317.74,417.10 -320.74,414.64 -322.61,412.77 -324.28,410.69 -325.68,408.41 -326.28,407.13 -326.75,405.82 -327.10,404.46 -327.32,403.07 -327.39,401.67 -327.33,400.27 -327.14,398.89 -326.82,397.54 -326.41,396.24 -325.89,394.95 -324.67,392.61 -323.20,390.41 -320.75,387.42"/>
    </edge>
    <edge id=":63_2" function="internal">
        <lane id=":63_2_0" index="0" disallow="pedestrian tram rail_urban rail rail_electric rail_fast ship" speed="10.86" length="29.01" width="3.50" shape="-318.15,389.77 -320.28,392.35 -321.51,394.21 -322.54,396.19 -322.96,397.22 -323.30,398.29 -323.55,399.37 -323.71,400.48 -323.76,401.59 -323.70,402.71 -323.52,403.81 -323.24,404.89 -322.87,405.94 -322.40,406.95 -321.23,408.85 -319.83,410.58 -318.25,412.16 -315.66,414.29"/>
    </edge>
    <edge id=":63_3" function="internal">
        <lane id=":63_3_0" index="0" disallow="pedestrian tram rail_urban rail rail_electric rail_fast ship" speed="11.38" length="28.66" width="3.50" shape="-318.15,389.77 -320.87,392.58 -323.77,395.20 -326.90,397.54 -329.15,398.86 -331.55,399.88 -332.80,400.25 -334.08,400.50 -335.37,400.61 -336.68,400.56 -337.96,400.34 -339.20,399.96 -340.39,399.42 -341.51,398.75 -342.55,397.97"/>
    </edge>
    <edge id=":63_4" function="internal">
        <lane id=":63_4_0" index="0" disallow="pedestrian tram rail_urban rail rail_electric rail_fast ship" speed="10.31" length="23.32" width="3.50" shape="-340.34,395.26 -339.54,395.86 -338.71,396.34 -337.84,396.71 -336.93,396.95 -335.99,397.06 -335.02,397.04 -334.05,396.90 -333.06,396.66 -332.11,396.33 -330.15,395.41 -328.30,394.26 -325.63,392.20 -323.12,389.89 -320.75,387.42"/>
    </edge>
    <edge id=":63_5" function="internal">
        <lane id=":63_5_0" index="0" disallow="pedestrian tram rail_urban rail rail_electric rail_fast ship" speed="36.11" length="31.17" width="3.50" shape="-340.34,395.26 -339.53,395.93 -330.59,403.03 -315.66,414.29"/>
    </edge>
    <edge id=":64_0" function="internal">
        <lane id=":64_0_0" index="0" disallow="pedestrian tram rail_urban rail rail_electric rail_fast ship" speed="9.89" length="22.29" width="3.50" shape="-342.75,397.81 -343.60,397.18 -344.53,396.67 -345.53,396.29 -346.57,396.07 -347.63,396.02 -348.68,396.12 -349.72,396.36 -350.72,396.71 -351.69,397.15 -352.62,397.66 -354.38,398.85 -356.03,400.20 -358.31,402.42 -360.44,404.81 -361.10,405.60"/>
    </edge>
    <edge id=":64_1" function="internal">
        <lane id=":64_1_0" index="0" disallow="pedestrian tram rail_urban rail rail_electric rail_fast ship" speed="36.11" length="29.64" width="3.50" shape="-342.75,397.81 -354.21,388.41 -365.67,379.01"/>
    </edge>
    <edge id=":64_2" function="internal">
        <lane id=":64_2_0" index="0" disallow="pedestrian tram rail_urban rail rail_electric rail_fast ship" speed="36.11" length="29.64" width="3.50" shape="-363.46,376.30 -351.99,385.71 -340.54,395.10"/>
    </edge>
    <edge id=":64_3" function="internal">
        <lane id=":64_3_0" index="0" disallow="pedestrian tram rail_urban rail rail_electric rail_fast ship" speed="12.09" length="33.62" width="3.50" shape="-363.46,376.30 -362.49,377.12 -360.67,378.84 -358.98,380.76 -357.50,382.89 -356.31,385.20 -355.83,386.47 -355.47,387.76 -355.21,389.08 -355.08,390.41 -355.06,391.75 -355.16,393.11 -355.65,395.67 -356.49,398.13 -357.60,400.44 -358.90,402.62 -361.10,405.60"/>
    </edge>
    <edge id=":64_4" function="internal">
        <lane id=":64_4_0" index="0" disallow="pedestrian tram rail_urban rail rail_electric rail_fast ship" speed="11.08" length="28.06" width="3.50" shape="-363.83,403.41 -361.91,400.81 -360.80,398.96 -359.86,397.01 -359.16,394.97 -358.74,392.86 -358.66,391.78 -358.67,390.70 -358.78,389.63 -358.97,388.56 -359.26,387.52 -359.64,386.51 -360.62,384.59 -361.85,382.82 -363.28,381.19 -364.84,379.71 -365.67,379.01"/>
    </edge>
    <edge id=":64_5" function="internal">
        <lane id=":64_5_0" index="0" disallow="pedestrian tram rail_urban rail rail_electric rail_fast ship" speed="10.99" length="27.83" width="3.50" shape="-363.83,403.41 -363.03,402.45 -360.55,399.70 -357.83,397.14 -355.80,395.56 -353.62,394.20 -352.40,393.60 -351.14,393.11 -349.81,392.75 -348.42,392.53 -347.00,392.50 -345.57,392.66 -344.18,393.03 -342.86,393.58 -341.64,394.29 -340.54,395.10"/>
    </edge>
    <edge id=":65_0" function="internal">
        <lane id=":65_0_0" index="0" disallow="pedestrian tram rail_urban rail rail_electric rail_fast ship" speed="36.11" length="37.38" width="3.50" shape="-365.86,378.85 -372.30,373.59 -394.64,355.00"/>
    </edge>
    <edge id=":65_1" function="internal">
        <lane id=":65_1_0" index="0" disallow="pedestrian tram rail_urban rail rail_electric rail_fast ship" speed="11.99" length="33.55" width="3.50" shape="-365.86,378.85 -367.82,377.13 -369.63,375.21 -371.24,373.07 -372.55,370.73 -373.09,369.42 -373.51,368.10 -373.79,366.73 -373.96,365.35 -373.98,363.95 -373.88,362.57 -373.67,361.21 -373.34,359.85 -372.44,357.35 -371.25,354.98 -369.85,352.76 -367.50,349.70"/>
    </edge>
    <edge id=":65_2" function="internal">
        <lane id=":65_2_0" index="0" disallow="pedestrian tram rail_urban rail rail_electric rail_fast ship" speed="10.96" length="27.89" width="3.50" shape="-364.83,351.97 -366.88,354.62 -368.07,356.50 -369.07,358.49 -369.84,360.59 -370.11,361.67 -370.29,362.77 -370.37,363.89 -370.36,365.00 -370.24,366.11 -370.02,367.20 -369.69,368.27 -369.27,369.30 -368.20,371.26 -366.86,373.04 -365.33,374.66 -363.65,376.14"/>
    </edge>
    <edge id=":65_3" function="internal">
        <lane id=":65_3_0" index="0" disallow="pedestrian tram rail_urban rail rail_electric rail_fast ship" speed="12.23" length="34.33" width="3.50" shape="-364.83,351.97 -367.54,354.86 -369.53,356.60 -371.67,358.14 -373.98,359.43 -375.19,359.94 -376.44,360.37 -377.73,360.69 -379.03,360.90 -380.35,361.00 -381.67,360.98 -382.98,360.84 -384.28,360.60 -386.80,359.83 -389.21,358.73 -391.47,357.38 -393.61,355.83 -394.64,355.00"/>
    </edge>
    <edge id=":65_4" function="internal">
        <lane id=":65_4_0" index="0" disallow="pedestrian tram rail_urban rail rail_electric rail_fast ship" speed="11.23" length="28.78" width="3.50" shape="-392.39,352.31 -391.50,353.03 -389.65,354.38 -387.71,355.53 -385.70,356.45 -383.59,357.09 -382.57,357.28 -381.51,357.38 -380.45,357.40 -379.39,357.32 -378.35,357.14 -377.31,356.88 -376.29,356.53 -375.32,356.12 -373.37,355.03 -371.56,353.72 -369.87,352.23 -367.50,349.70"/>
    </edge>
    <edge id=":65_5" function="internal">
        <lane id=":65_5_0" index="0" disallow="pedestrian tram rail_urban rail rail_electric rail_fast ship" speed="36.11" length="37.33" width="3.50" shape="-392.39,352.31 -370.07,370.89 -363.65,376.14"/>
    </edge>
    <edge id=":66_0" function="internal">
        <lane id=":66_0_0" index="0" disallow="pedestrian tram rail_urban rail rail_electric rail_fast ship" speed="11.37" length="28.65" width="3.50" shape="-200.70,388.48 -202.50,387.07 -204.38,385.83 -206.34,384.79 -208.38,384.00 -210.50,383.51 -211.53,383.39 -212.59,383.36 -213.64,383.41 -214.69,383.55 -215.70,383.77 -217.76,384.48 -219.71,385.47 -221.55,386.70 -223.29,388.12 -225.75,390.56"/>
    </edge>
    <edge id=":66_1" function="internal">
        <lane id=":66_1_0" index="0" disallow="pedestrian tram rail_urban rail rail_electric rail_fast ship" speed="36.11" length="37.92" width="3.50" shape="-200.70,388.48 -205.53,384.38 -217.39,373.98 -229.01,363.26"/>
    </edge>
    <edge id=":66_2" function="internal">
        <lane id=":66_2_0" index="0" disallow="pedestrian tram rail_urban rail rail_electric rail_fast ship" speed="36.11" length="37.70" width="3.50" shape="-226.61,360.72 -215.05,371.37 -203.25,381.73 -198.46,385.79"/>
    </edge>
    <edge id=":66_3" function="internal">
        <lane id=":66_3_0" index="0" disallow="pedestrian tram rail_urban rail rail_electric rail_fast ship" speed="12.25" length="34.13" width="3.50" shape="-226.61,360.71 -223.88,363.58 -222.28,365.66 -220.91,367.89 -219.83,370.28 -219.43,371.53 -219.12,372.80 -218.92,374.10 -218.84,375.40 -218.86,376.71 -219.00,378.02 -219.25,379.31 -220.02,381.81 -221.12,384.19 -222.47,386.43 -224.03,388.54 -225.75,390.56"/>
    </edge>
    <edge id=":66_4" function="internal">
        <lane id=":66_4_0" index="0" disallow="pedestrian tram rail_urban rail rail_electric rail_fast ship" speed="11.25" length="28.60" width="3.50" shape="-228.33,388.20 -226.83,386.44 -225.49,384.62 -224.34,382.71 -223.41,380.72 -222.76,378.63 -222.57,377.61 -222.46,376.56 -222.44,375.51 -222.50,374.46 -222.66,373.42 -222.91,372.39 -223.23,371.40 -224.13,369.39 -225.28,367.52 -226.63,365.76 -229.01,363.26"/>
    </edge>
    <edge id=":66_5" function="internal">
        <lane id=":66_5_0" index="0" disallow="pedestrian tram rail_urban rail rail_electric rail_fast ship" speed="12.36" length="34.06" width="3.50" shape="-228.33,388.20 -225.52,385.41 -223.49,383.76 -221.31,382.31 -218.98,381.13 -216.50,380.28 -215.23,380.00 -213.93,379.83 -212.62,379.76 -211.31,379.81 -210.01,379.96 -207.47,380.56 -205.03,381.51 -202.71,382.73 -200.53,384.17 -198.46,385.79"/>
    </edge>
    <edge id=":67_0" function="internal">
        <lane id=":67_0_0" index="0" disallow="pedestrian tram rail_urban rail rail_electric rail_fast ship" speed="10.72" length="29.82" width="3.50" shape="-270.04,471.96 -272.80,469.91 -274.76,468.72 -276.84,467.76 -277.93,467.38 -279.04,467.09 -280.17,466.89 -281.31,466.81 -282.45,466.84 -283.59,467.00 -284.70,467.28 -285.78,467.68 -286.80,468.19 -287.78,468.80 -288.70,469.48 -290.38,471.04 -291.87,472.78 -293.19,474.66 -294.38,476.63"/>
    </edge>
    <edge id=":67_1" function="internal">
        <lane id=":67_1_0" index="0" disallow="pedestrian tram rail_urban rail rail_electric rail_fast ship" speed="11.34" length="27.27" width="3.50" shape="-270.04,471.96 -274.70,467.87 -278.19,464.35 -280.57,461.49 -281.97,459.44 -283.12,457.25 -283.56,456.09 -283.87,454.89 -284.01,453.66 -283.93,452.42 -283.62,451.23 -283.06,450.12"/>
    </edge>
    <edge id=":67_2" function="internal">
        <lane id=":67_2_0" index="0" disallow="pedestrian tram rail_urban rail rail_electric rail_fast ship" speed="10.20" length="22.17" width="3.50" shape="-280.15,452.08 -280.40,452.54 -280.55,453.27 -280.51,454.07 -280.32,454.92 -280.00,455.80 -279.60,456.66 -278.52,458.44 -277.26,460.12 -275.12,462.56 -271.98,465.64 -267.82,469.26"/>
    </edge>
    <edge id=":67_3" function="internal">
        <lane id=":67_3_0" index="0" disallow="pedestrian tram rail_urban rail rail_electric rail_fast ship" speed="36.11" length="28.37" width="3.50" shape="-280.16,452.08 -283.91,458.28 -294.38,476.63"/>
    </edge>
    <edge id=":67_4" function="internal">
        <lane id=":67_4_0" index="0" disallow="pedestrian tram rail_urban rail rail_electric rail_fast ship" speed="36.11" length="28.66" width="3.50" shape="-297.43,474.91 -286.91,456.47 -283.06,450.12"/>
    </edge>
    <edge id=":67_5" function="internal">
        <lane id=":67_5_0" index="0" disallow="pedestrian tram rail_urban rail rail_electric rail_fast ship" speed="11.75" length="36.09" width="3.50" shape="-297.43,474.91 -296.05,472.63 -294.50,470.44 -292.73,468.37 -290.72,466.51 -289.57,465.65 -288.35,464.90 -287.06,464.26 -285.70,463.75 -284.28,463.39 -282.83,463.19 -281.37,463.15 -279.93,463.26 -278.52,463.50 -277.15,463.86 -275.81,464.33 -273.34,465.48 -271.01,466.88 -267.82,469.26"/>
    </edge>
    <edge id=":68_0" function="internal">
        <lane id=":68_0_0" index="0" disallow="pedestrian tram rail_urban rail rail_electric rail_fast ship" speed="10.93" length="28.68" width="3.50" shape="-296.23,298.89 -298.85,296.59 -300.68,295.29 -302.61,294.19 -304.66,293.37 -305.66,293.09 -306.70,292.90 -307.75,292.80 -308.79,292.80 -309.83,292.90 -310.87,293.10 -311.88,293.40 -312.85,293.76 -314.81,294.79 -316.63,296.06 -318.33,297.53 -320.70,300.05"/>
    </edge>
    <edge id=":68_1" function="internal">
        <lane id=":68_1_0" index="0" disallow="pedestrian tram rail_urban rail rail_electric rail_fast ship" speed="36.11" length="40.09" width="3.50" shape="-296.25,298.87 -324.96,270.89"/>
    </edge>
    <edge id=":68_2" function="internal">
        <lane id=":68_2_0" index="0" disallow="pedestrian tram rail_urban rail rail_electric rail_fast ship" speed="36.11" length="41.57" width="3.50" shape="-323.58,267.35 -307.63,282.89 -293.81,296.36"/>
    </edge>
    <edge id=":68_3" function="internal">
        <lane id=":68_3_0" index="0" disallow="pedestrian tram rail_urban rail rail_electric rail_fast ship" speed="13.08" length="37.50" width="3.50" shape="-323.58,267.35 -318.93,272.18 -317.41,274.22 -316.11,276.42 -315.07,278.80 -314.37,281.32 -314.05,283.90 -314.04,285.28 -314.33,287.85 -314.97,290.36 -315.91,292.75 -317.08,295.00 -318.44,297.12 -320.70,300.05"/>
    </edge>
    <edge id=":68_4" function="internal">
        <lane id=":68_4_0" index="0" disallow="pedestrian tram rail_urban rail rail_electric rail_fast ship" speed="12.03" length="30.13" width="3.50" shape="-323.37,297.78 -322.26,296.40 -321.28,295.01 -320.44,293.62 -319.73,292.23 -319.15,290.83 -318.70,289.43 -318.38,288.02 -318.20,286.61 -318.14,285.20 -318.22,283.78 -318.44,282.36 -318.78,280.94 -319.25,279.51 -319.86,278.08 -320.60,276.64 -321.47,275.20 -322.48,273.76 -323.61,272.31 -324.88,270.86"/>
    </edge>
    <edge id=":68_5" function="internal">
        <lane id=":68_5_0" index="0" disallow="pedestrian tram rail_urban rail rail_electric rail_fast ship" speed="11.95" length="34.50" width="3.50" shape="-323.37,297.79 -320.64,294.89 -318.63,293.15 -316.46,291.63 -314.10,290.40 -312.87,289.93 -311.59,289.56 -310.29,289.31 -308.97,289.18 -307.64,289.18 -306.32,289.30 -305.01,289.54 -303.74,289.90 -301.28,290.89 -298.97,292.20 -296.80,293.74 -293.81,296.36"/>
    </edge>

    <edge id="40409" from="61" to="68" priority="3" type="highway.residential" spreadType="center" length="24.04" shape="-269.50,333.83 -312.34,293.75">
        <lane id="40409_0" index="0" disallow="pedestrian tram rail_urban rail rail_electric rail_fast ship" speed="36.11" length="24.04" width="3.50" customShape="1" shape="-279.02,315.63 -287.64,307.25 -296.25,298.87"/>
    </edge>
    <edge id="40410" from="68" to="61" priority="3" type="highway.residential" spreadType="center" length="24.05" shape="-309.95,291.20 -267.11,331.27">
        <lane id="40410_0" index="0" disallow="pedestrian tram rail_urban rail rail_electric rail_fast ship" speed="36.11" length="24.05" width="3.50" customShape="1" shape="-293.81,296.36 -285.20,304.74 -276.57,313.13"/>
    </edge>
    <edge id="40412" from="66" to="61" priority="3" type="highway.residential" spreadType="center" length="30.50" shape="-219.30,380.81 -269.50,333.83">
        <lane id="40412_0" index="0" disallow="pedestrian tram rail_urban rail rail_electric rail_fast ship" speed="36.11" length="30.50" width="3.50" customShape="1" shape="-229.01,363.26 -240.09,352.79 -251.18,342.32"/>
    </edge>
    <edge id="40413" from="61" to="66" priority="3" type="highway.residential" spreadType="center" length="30.52" shape="-267.11,331.27 -216.91,378.26">
        <lane id="40413_0" index="0" disallow="pedestrian tram rail_urban rail rail_electric rail_fast ship" speed="36.11" length="30.52" width="3.50" customShape="1" shape="-248.78,339.77 -237.68,350.25 -226.59,360.73"/>
    </edge>
    <edge id="40415" from="57" to="66" priority="3" type="highway.residential" spreadType="center" length="22.27" shape="-183.64,402.78 -219.12,380.95">
        <lane id="40415_0" index="0" disallow="pedestrian tram rail_urban rail rail_electric rail_fast ship" speed="36.11" length="22.27" width="3.50" customShape="1" shape="-183.64,402.78 -192.18,395.62 -200.71,388.47"/>
    </edge>
    <edge id="40416" from="66" to="54" priority="3" type="highway.residential" spreadType="center" length="22.27" shape="-217.28,377.98 -181.39,400.10">
        <lane id="40416_0" index="0" disallow="pedestrian tram rail_urban rail rail_electric rail_fast ship" speed="36.11" length="22.27" width="3.50" customShape="1" shape="-198.46,385.79 -189.93,392.94 -181.39,400.10"/>
    </edge>
    <edge id="40433" from="48" to="67" priority="3" type="highway.residential" spreadType="center" length="10.56" shape="-261.92,478.70 -283.07,467.27">
        <lane id="40433_0" index="0" disallow="pedestrian tram rail_urban rail rail_electric rail_fast ship" speed="36.11" length="10.56" width="3.50" customShape="1" shape="-261.92,478.70 -265.98,475.33 -270.05,471.96"/>
    </edge>
    <edge id="40434" from="67" to="41" priority="3" type="highway.residential" spreadType="center" length="10.57" shape="-281.40,464.20 -259.68,476.00">
        <lane id="40434_0" index="0" disallow="pedestrian tram rail_urban rail rail_electric rail_fast ship" speed="36.11" length="10.57" width="3.50" customShape="1" shape="-267.82,469.26 -263.75,472.64 -259.68,476.00"/>
    </edge>
    <edge id="40640" from="64" to="22" priority="3" type="highway.residential" spreadType="center" length="51.08" shape="-354.79,393.88 -393.33,445.23">
        <lane id="40640_0" index="0" disallow="pedestrian tram rail_urban rail rail_electric rail_fast ship" speed="36.11" length="51.08" width="3.50" customShape="1" shape="-361.10,405.60 -377.22,425.43 -393.33,445.23"/>
    </edge>
    <edge id="40641" from="27" to="64" priority="3" type="highway.residential" spreadType="center" length="51.09" shape="-396.05,443.02 -357.59,391.78">
        <lane id="40641_0" index="0" disallow="pedestrian tram rail_urban rail rail_electric rail_fast ship" speed="36.11" length="51.09" width="3.50" customShape="1" shape="-396.05,443.02 -379.94,423.22 -363.81,403.39"/>
    </edge>
    <edge id="40713" from="61" to="63" priority="3" type="highway.residential" spreadType="center" length="62.79" shape="-266.97,333.68 -324.56,401.46">
        <lane id="40713_0" index="0" disallow="pedestrian tram rail_urban rail rail_electric rail_fast ship" speed="36.11" length="62.79" width="3.50" customShape="1" shape="-275.84,343.40 -297.00,366.58 -318.16,389.78"/>
    </edge>
    <edge id="40714" from="63" to="61" priority="3" type="highway.residential" spreadType="center" length="62.79" shape="-327.23,399.19 -269.63,331.42">
        <lane id="40714_0" index="0" disallow="pedestrian tram rail_urban rail rail_electric rail_fast ship" speed="36.11" length="62.79" width="3.50" customShape="1" shape="-320.75,387.42 -299.58,364.22 -278.43,341.04"/>
    </edge>
    <edge id="40816" from="67" to="39" priority="3" type="highway.residential" spreadType="center" length="11.75" shape="-280.80,466.93 -300.13,486.88">
        <lane id="40816_0" index="0" disallow="pedestrian tram rail_urban rail rail_electric rail_fast ship" speed="36.11" length="11.75" width="3.50" customShape="1" shape="-294.38,476.63 -297.25,481.75 -300.13,486.88"/>
    </edge>
    <edge id="40817" from="45" to="67" priority="3" type="highway.residential" spreadType="center" length="11.78" shape="-303.18,485.17 -283.31,464.51">