<routes>
	<vehicle depart="0.1" departLane="0" departPos="57.68322640948746" departSpeed="0.0" id="313" type="passenger">
		<route edges="40713 40965"/>
	</vehicle>
	<vehicle depart="0.1" departLane="0" departPos="50.18268422846918" departSpeed="1.6052628e-05" id="315" type="passenger">
		<route edges="40713 40965"/>
	</vehicle>
	<vehicle depart="0.1" departLane="0" departPos="42.681965132349376" departSpeed="0.00020278395" id="325" type="passenger">
		<route edges="40713 40965"/>
	</vehicle>
	<vehicle depart="0.1" departLane="0" departPos="41.05358403233724" departSpeed="2.0957821" id="332" type="passenger">
		<route edges="40641 40966"/>
	</vehicle>
	<vehicle depart="0.1" departLane="0" departPos="28.668610217240335" departSpeed="3.1216784" id="346" type="passenger">
		<route edges="40641 40966"/>
	</vehicle>
	<vehicle depart="0.1" departLane="0" departPos="19.931000027548357" departSpeed="2.6671061" id="356" type="passenger">
		<route edges="40641 40966"/>
	</vehicle>
	<vehicle depart="0.1" departLane="0" departPos="10.129865152434451" departSpeed="1.7121385" id="359" type="passenger">
		<route edges="40641 40966"/>
	</vehicle>
	<vehicle depart="0.1" departLane="0" departPos="62.68392476321461" departSpeed="0.0" id="33" type="motorcycle">
		<route edges="40713 40965"/>
	</vehicle>
	<vehicle depart="0.1" departLane="0" departPos="9.882994124609311" departSpeed="1.7177042" id="322" type="truck">
		<route edges=":64_3 40640"/>
	</vehicle>
</routes>
