<!-- generated on Tue Feb  9 22:16:25 2021 by Eclipse SUMO netconvert Version 1.8.0
<configuration xmlns:xsi="http://www.w3.org/2001/XMLSchema-instance" xsi:noNamespaceSchemaLocation="http://sumo.dlr.de/xsd/netconvertConfiguration.xsd">

    <input>
        <node-files value="./converted_scenarios/scenario-factory/FRA_Miramas-5_2_I-1-1/FRA_Miramas-5_2_I-1-1.nod.xml"/>
        <edge-files value="./converted_scenarios/scenario-factory/FRA_Miramas-5_2_I-1-1/FRA_Miramas-5_2_I-1-1.edg.xml"/>
        <connection-files value="./converted_scenarios/scenario-factory/FRA_Miramas-5_2_I-1-1/FRA_Miramas-5_2_I-1-1.con.xml"/>
        <tllogic-files value="./converted_scenarios/scenario-factory/FRA_Miramas-5_2_I-1-1/FRA_Miramas-5_2_I-1-1.tll.xml"/>
        <type-files value="/home/zen/commonroad-interactive-benchmarks/install/commonroad-map-tool/crmapconverter/sumo_map/templates/DEU.typ.xml"/>
    </input>

    <output>
        <output-file value="./converted_scenarios/scenario-factory/FRA_Miramas-5_2_I-1-1/FRA_Miramas-5_2_I-1-1.net.xml"/>
    </output>

    <processing>
        <geometry.remove.keep-edges.explicit value="true"/>
        <geometry.avoid-overlap value="true"/>
        <offset.disable-normalization value="true"/>
    </processing>

    <junctions>
        <no-turnarounds value="true"/>
        <junctions.internal-link-detail value="20"/>
    </junctions>

    <report>
        <aggregate-warnings value="5"/>
    </report>

    <random_number>
        <seed value="1234"/>
    </random_number>

</configuration>
--><net xmlns:xsi="http://www.w3.org/2001/XMLSchema-instance" version="1.6" junctionCornerDetail="5" junctionLinkDetail="20" limitTurnSpeed="5.50" xsi:noNamespaceSchemaLocation="http://sumo.dlr.de/xsd/net_file.xsd">

    <location netOffset="0.00,0.00" convBoundary="193.56,-999.98,395.28,-771.76" origBoundary="193.56,-999.98,395.28,-771.76" projParameter="!"/>

    <type id="highway.bridleway" priority="1" speed="2.78" allow="pedestrian" oneway="1" width="2.00"/>
    <type id="highway.bus_guideway" priority="1" speed="27.78" allow="bus" oneway="1"/>
    <type id="highway.cycleway" priority="1" speed="8.33" allow="bicycle" oneway="0" width="1.00"/>
    <type id="highway.footway" priority="1" speed="2.78" allow="pedestrian" oneway="1" width="2.00"/>
    <type id="highway.ford" priority="1" speed="2.78" allow="army" oneway="0"/>
    <type id="highway.living_street" priority="2" speed="2.78" disallow="tram rail_urban rail rail_electric rail_fast ship" oneway="0"/>
    <type id="highway.motorway" priority="14" speed="39.44" allow="private emergency authority army vip passenger hov taxi bus coach delivery truck trailer motorcycle evehicle custom1 custom2" oneway="1"/>
    <type id="highway.motorway_link" priority="9" speed="22.22" allow="private emergency authority army vip passenger hov taxi bus coach delivery truck trailer motorcycle evehicle custom1 custom2" oneway="1"/>
    <type id="highway.path" priority="1" speed="2.78" allow="pedestrian bicycle" oneway="0" width="2.00"/>
    <type id="highway.pedestrian" priority="1" speed="2.78" allow="pedestrian" oneway="1" width="2.00"/>
    <type id="highway.primary" priority="12" speed="27.78" disallow="pedestrian tram rail_urban rail rail_electric rail_fast ship" oneway="0"/>
    <type id="highway.primary_link" priority="7" speed="22.22" disallow="pedestrian tram rail_urban rail rail_electric rail_fast ship" oneway="0"/>
    <type id="highway.raceway" priority="15" speed="83.33" allow="vip" oneway="0"/>
    <type id="highway.residential" priority="3" speed="13.89" disallow="pedestrian tram rail_urban rail rail_electric rail_fast ship" oneway="0"/>
    <type id="highway.secondary" priority="11" speed="27.78" disallow="pedestrian tram rail_urban rail rail_electric rail_fast ship" oneway="0"/>
    <type id="highway.secondary_link" priority="6" speed="22.22" disallow="pedestrian tram rail_urban rail rail_electric rail_fast ship" oneway="0"/>
    <type id="highway.service" priority="1" speed="5.56" allow="pedestrian delivery bicycle" oneway="0"/>
    <type id="highway.stairs" priority="1" speed="1.39" allow="pedestrian" oneway="1" width="2.00"/>
    <type id="highway.step" priority="1" speed="1.39" allow="pedestrian" oneway="1" width="2.00"/>
    <type id="highway.steps" priority="1" speed="1.39" allow="pedestrian" oneway="1" width="2.00"/>
    <type id="highway.tertiary" priority="10" speed="22.22" disallow="pedestrian tram rail_urban rail rail_electric rail_fast ship" oneway="0"/>
    <type id="highway.tertiary_link" priority="5" speed="22.22" disallow="pedestrian tram rail_urban rail rail_electric rail_fast ship" oneway="0"/>
    <type id="highway.track" priority="1" speed="5.56" allow="pedestrian motorcycle moped bicycle" oneway="0"/>
    <type id="highway.trunk" priority="13" speed="27.78" disallow="pedestrian bicycle tram rail_urban rail rail_electric rail_fast ship" oneway="0"/>
    <type id="highway.trunk_link" priority="8" speed="22.22" disallow="pedestrian bicycle tram rail_urban rail rail_electric rail_fast ship" oneway="0"/>
    <type id="highway.unclassified" priority="4" speed="13.89" disallow="pedestrian tram rail_urban rail rail_electric rail_fast ship" oneway="0"/>
    <type id="highway.unsurfaced" priority="1" speed="8.33" disallow="tram rail_urban rail rail_electric rail_fast ship" oneway="0"/>
    <type id="railway.highspeed" priority="21" speed="69.44" allow="rail_fast" oneway="1"/>
    <type id="railway.light_rail" priority="19" speed="27.78" allow="rail_urban" oneway="1"/>
    <type id="railway.preserved" priority="16" speed="27.78" allow="rail" oneway="1"/>
    <type id="railway.rail" priority="20" speed="44.44" allow="rail" oneway="1"/>
    <type id="railway.subway" priority="18" speed="27.78" allow="rail_urban" oneway="1"/>
    <type id="railway.tram" priority="17" speed="13.89" allow="tram" oneway="1"/>

    <edge id=":51_0" function="internal">
        <lane id=":51_0_0" index="0" disallow="pedestrian tram rail_urban rail rail_electric rail_fast ship" speed="36.11" length="2.99" width="3.50" shape="307.60,-824.60 305.75,-826.95"/>
    </edge>
    <edge id=":56_0" function="internal">
        <lane id=":56_0_0" index="0" disallow="pedestrian tram rail_urban rail rail_electric rail_fast ship" speed="36.11" length="3.01" width="3.50" shape="305.52,-803.04 302.87,-801.62"/>
    </edge>
    <edge id=":58_0" function="internal">
        <lane id=":58_0_0" index="0" disallow="pedestrian tram rail_urban rail rail_electric rail_fast ship" speed="36.11" length="3.01" width="3.50" shape="329.20,-819.75 331.85,-821.17"/>
    </edge>
    <edge id=":66_0" function="internal">
        <lane id=":66_0_0" index="0" disallow="pedestrian tram rail_urban rail rail_electric rail_fast ship" speed="36.11" length="0.30" width="3.50" shape="332.32,-817.46 332.06,-817.32"/>
    </edge>
    <edge id=":69_0" function="internal">
        <lane id=":69_0_0" index="0" disallow="pedestrian tram rail_urban rail rail_electric rail_fast ship" speed="36.11" length="3.00" width="3.49" shape="301.21,-804.69 303.85,-806.11"/>
    </edge>
    <edge id=":76_0" function="internal">
        <lane id=":76_0_0" index="0" disallow="pedestrian tram rail_urban rail rail_electric rail_fast ship" speed="36.11" length="2.99" width="3.50" shape="308.50,-829.12 310.35,-826.77"/>
    </edge>
    <edge id=":77_0" function="internal">
        <lane id=":77_0_0" index="0" disallow="pedestrian tram rail_urban rail rail_electric rail_fast ship" speed="36.11" length="2.99" width="3.45" shape="295.37,-856.98 295.35,-856.76 295.34,-856.56 295.34,-856.38 295.35,-856.21 295.36,-856.06 295.37,-855.91 295.39,-855.78 295.40,-855.66 295.42,-855.53 295.43,-855.41 295.45,-855.29 295.45,-855.17 295.45,-855.04 295.44,-854.90 295.42,-854.76 295.40,-854.60 295.36,-854.42 295.30,-854.23 295.24,-854.02"/>
    </edge>
    <edge id=":78_0" function="internal">
        <lane id=":78_0_0" index="0" disallow="pedestrian tram rail_urban rail rail_electric rail_fast ship" speed="8.38" length="1.16" width="3.50" shape="295.01,-865.33 296.17,-865.29"/>
    </edge>
    <edge id=":81_0" function="internal">
        <lane id=":81_0_0" index="0" disallow="pedestrian tram rail_urban rail rail_electric rail_fast ship" speed="36.11" length="25.01" width="3.50" shape="302.91,-878.32 295.24,-874.29 287.77,-870.04 281.28,-865.80"/>
    </edge>
    <edge id=":81_1" function="internal">
        <lane id=":81_1_0" index="0" disallow="pedestrian tram rail_urban rail rail_electric rail_fast ship" speed="22.64" length="28.91" width="3.50" shape="302.91,-878.32 299.86,-876.89 296.76,-875.68 293.57,-874.69 290.33,-873.93 287.05,-873.39 282.62,-873.01 278.18,-873.01 274.85,-873.23"/>
    </edge>
    <edge id=":81_2" function="internal">
        <lane id=":81_2_0" index="0" disallow="pedestrian tram rail_urban rail rail_electric rail_fast ship" speed="21.78" length="26.92" width="3.50" shape="275.17,-876.72 278.29,-876.50 282.45,-876.51 286.58,-876.86 289.63,-877.36 292.64,-878.06 295.59,-878.98 298.48,-880.10 301.30,-881.43"/>
    </edge>
    <edge id=":81_3" function="internal">
        <lane id=":81_3_0" index="0" disallow="pedestrian tram rail_urban rail rail_electric rail_fast ship" speed="10.22" length="17.17" width="3.48" shape="275.17,-876.72 283.72,-875.89 292.26,-875.07"/>
    </edge>
    <edge id=":81_4" function="internal">
        <lane id=":81_4_0" index="0" disallow="pedestrian tram rail_urban rail rail_electric rail_fast ship" speed="36.11" length="25.45" width="3.50" shape="279.30,-868.68 285.92,-873.01 293.53,-877.34 301.30,-881.43"/>
    </edge>
    <edge id=":81_5" function="internal">
        <lane id=":81_5_0" index="0" disallow="pedestrian tram rail_urban rail rail_electric rail_fast ship" speed="7.32" length="14.64" width="3.48" shape="279.30,-868.68 285.43,-872.68 287.59,-873.81 289.85,-874.72 291.04,-875.01 292.26,-875.07"/>
    </edge>
    <edge id=":81_6" function="internal">
        <lane id=":81_6_0" index="0" disallow="pedestrian tram rail_urban rail rail_electric rail_fast ship" speed="6.92" length="12.92" width="3.50" shape="292.58,-871.19 291.32,-871.54 290.53,-871.30 288.69,-870.48 286.89,-869.49 281.28,-865.80"/>
    </edge>
    <edge id=":81_7" function="internal">
        <lane id=":81_7_0" index="0" disallow="pedestrian tram rail_urban rail rail_electric rail_fast ship" speed="10.52" length="17.85" width="3.50" shape="292.58,-871.19 283.39,-872.41 274.85,-873.23"/>
    </edge>
    <edge id=":82_0" function="internal">
        <lane id=":82_0_0" index="0" disallow="pedestrian tram rail_urban rail rail_electric rail_fast ship" speed="6.60" length="11.31" width="3.49" shape="263.10,-867.96 263.00,-867.98 260.70,-868.89 259.60,-869.21 258.49,-869.42 257.44,-869.48 256.50,-869.37 255.73,-869.08 255.12,-868.63 254.61,-867.96 254.21,-867.09 253.93,-866.05"/>
    </edge>
    <edge id=":82_1" function="internal">
        <lane id=":82_1_0" index="0" disallow="pedestrian tram rail_urban rail rail_electric rail_fast ship" speed="36.11" length="24.29" width="3.50" shape="263.09,-867.97 259.25,-870.16 255.54,-872.60 251.99,-875.26 247.80,-878.87 243.90,-882.70"/>
    </edge>
    <edge id=":82_2" function="internal">
        <lane id=":82_2_0" index="0" disallow="pedestrian tram rail_urban rail rail_electric rail_fast ship" speed="10.54" length="23.93" width="3.49" shape="274.61,-873.25 271.25,-873.50 267.91,-873.54 264.60,-873.33 262.48,-873.01 260.43,-872.49 258.50,-871.73 257.66,-871.27 256.85,-870.73 256.13,-870.12 255.50,-869.44 254.96,-868.70 254.52,-867.88 254.18,-867.01 253.93,-866.05"/>
    </edge>
    <edge id=":82_3" function="internal">
        <lane id=":82_3_0" index="0" disallow="pedestrian tram rail_urban rail rail_electric rail_fast ship" speed="20.36" length="32.66" width="3.50" shape="274.61,-873.25 269.32,-873.85 263.02,-874.83 257.78,-875.98 253.63,-877.20 250.54,-878.38 247.56,-879.89 245.63,-881.18 243.90,-882.70"/>
    </edge>
    <edge id=":82_4" function="internal">
        <lane id=":82_4_0" index="0" disallow="pedestrian tram rail_urban rail rail_electric rail_fast ship" speed="19.36" length="30.22" width="3.50" shape="246.40,-885.15 247.91,-883.83 249.60,-882.73 252.31,-881.41 255.14,-880.35 259.02,-879.25 263.95,-878.21 269.93,-877.30 274.94,-876.74"/>
    </edge>
    <edge id=":82_5" function="internal">
        <lane id=":82_5_0" index="0" disallow="pedestrian tram rail_urban rail rail_electric rail_fast ship" speed="36.11" length="26.08" width="3.50" shape="246.40,-885.15 250.15,-881.45 254.16,-878.01 257.53,-875.47 261.06,-873.15 264.74,-871.06 267.28,-869.77"/>
    </edge>
    <edge id=":82_6" function="internal">
        <lane id=":82_6_0" index="0" disallow="pedestrian tram rail_urban rail rail_electric rail_fast ship" speed="13.41" length="21.36" width="3.49" shape="246.40,-885.15 248.66,-882.58 250.69,-879.81 251.89,-877.78 252.90,-875.64 253.66,-873.36 254.12,-870.98 254.22,-868.53 253.93,-866.05"/>
    </edge>
    <edge id=":82_7" function="internal">
        <lane id=":82_7_0" index="0" disallow="pedestrian tram rail_urban rail rail_electric rail_fast ship" speed="11.83" length="17.43" width="3.50" shape="250.61,-867.26 250.73,-868.75 250.63,-870.75 250.22,-872.70 249.55,-874.58 248.67,-876.38 247.63,-878.09 245.85,-880.50 243.90,-882.70"/>
    </edge>
    <edge id=":82_8" function="internal">
        <lane id=":82_8_0" index="0" disallow="pedestrian tram rail_urban rail rail_electric rail_fast ship" speed="11.62" length="28.57" width="3.50" shape="250.61,-867.26 250.82,-867.99 251.25,-869.18 251.82,-870.31 252.51,-871.36 253.33,-872.33 254.25,-873.19 255.26,-873.95 256.35,-874.60 258.66,-875.61 261.09,-876.30 263.58,-876.74 267.36,-877.03 271.16,-877.00 274.94,-876.74"/>
    </edge>
    <edge id=":82_9" function="internal">
        <lane id=":82_9_0" index="0" disallow="pedestrian tram rail_urban rail rail_electric rail_fast ship" speed="8.70" length="20.33" width="3.50" shape="250.61,-867.26 250.91,-868.30 251.53,-869.77 252.41,-871.08 253.60,-872.13 255.03,-872.80 256.59,-873.09 258.17,-873.07 259.74,-872.82 261.28,-872.41 264.24,-871.26 267.28,-869.77"/>
    </edge>
    <edge id=":83_0" function="internal">
        <lane id=":83_0_0" index="0" disallow="pedestrian tram rail_urban rail rail_electric rail_fast ship" speed="17.49" length="27.21" width="3.50" shape="296.71,-838.32 294.68,-840.68 292.46,-842.88 290.06,-844.88 287.49,-846.65 284.77,-848.17 281.91,-849.43 278.95,-850.42 275.92,-851.15 273.70,-851.51"/>
    </edge>
    <edge id=":83_1" function="internal">
        <lane id=":83_1_0" index="0" disallow="pedestrian tram rail_urban rail rail_electric rail_fast ship" speed="36.11" length="26.94" width="3.50" shape="296.71,-838.32 296.06,-839.13 290.02,-846.42 285.12,-851.87 278.62,-858.25"/>
    </edge>
    <edge id=":83_2" function="internal">
        <lane id=":83_2_0" index="0" disallow="pedestrian tram rail_urban rail rail_electric rail_fast ship" speed="9.40" length="17.08" width="3.50" shape="290.62,-849.15 282.30,-850.31 273.70,-851.51"/>
    </edge>
    <edge id=":83_3" function="internal">
        <lane id=":83_3_0" index="0" disallow="pedestrian tram rail_urban rail rail_electric rail_fast ship" speed="7.27" length="15.19" width="3.50" shape="290.62,-849.15 289.19,-849.63 287.99,-850.30 286.93,-851.01 284.16,-853.20 278.62,-858.25"/>
    </edge>
    <edge id=":83_4" function="internal">
        <lane id=":83_4_0" index="0" disallow="pedestrian tram rail_urban rail rail_electric rail_fast ship" speed="6.54" length="13.59" width="2.95" shape="280.97,-860.80 286.16,-856.07 288.56,-854.11 289.39,-853.51 290.27,-852.96 291.56,-853.52"/>
    </edge>
    <edge id=":83_5" function="internal">
        <lane id=":83_5_0" index="0" disallow="pedestrian tram rail_urban rail rail_electric rail_fast ship" speed="36.11" length="27.47" width="3.50" shape="280.97,-860.80 287.63,-854.31 292.64,-848.74 298.79,-841.33 299.44,-840.51"/>
    </edge>
    <edge id=":83_6" function="internal">
        <lane id=":83_6_0" index="0" disallow="pedestrian tram rail_urban rail rail_electric rail_fast ship" speed="8.62" length="17.28" width="2.95" shape="274.37,-854.95 282.79,-853.77 291.56,-853.52"/>
    </edge>
    <edge id=":83_7" function="internal">
        <lane id=":83_7_0" index="0" disallow="pedestrian tram rail_urban rail rail_electric rail_fast ship" speed="18.27" length="29.67" width="3.50" shape="274.37,-854.95 276.61,-854.58 279.93,-853.78 283.18,-852.69 286.33,-851.31 289.33,-849.63 292.16,-847.68 294.80,-845.49 297.23,-843.08 299.44,-840.51"/>
    </edge>
    <edge id=":84_0" function="internal">
        <lane id=":84_0_0" index="0" disallow="pedestrian tram rail_urban rail rail_electric rail_fast ship" speed="23.02" length="34.38" width="3.50" shape="273.61,-851.53 266.59,-852.36 260.54,-852.79 255.48,-852.86 251.44,-852.67 247.43,-852.19 244.46,-851.55 241.58,-850.62 239.73,-849.77"/>
    </edge>
    <edge id=":84_1" function="internal">
        <lane id=":84_1_0" index="0" disallow="pedestrian tram rail_urban rail rail_electric rail_fast ship" speed="11.42" length="31.22" width="3.49" shape="273.61,-851.53 271.27,-851.88 266.61,-852.77 263.12,-853.65 259.68,-854.79 257.40,-855.78 255.22,-857.00 254.14,-857.77 253.13,-858.64 252.20,-859.65 251.40,-860.81 250.78,-862.12 250.40,-863.55 250.30,-865.03 250.57,-867.06"/>
    </edge>
    <edge id=":84_2" function="internal">
        <lane id=":84_2_0" index="0" disallow="pedestrian tram rail_urban rail rail_electric rail_fast ship" speed="36.11" length="25.44" width="3.50" shape="263.29,-859.22 262.47,-859.00 257.58,-857.54 251.82,-855.42 246.18,-852.97 239.73,-849.77"/>
    </edge>
    <edge id=":84_3" function="internal">
        <lane id=":84_3_0" index="0" disallow="pedestrian tram rail_urban rail rail_electric rail_fast ship" speed="8.02" length="18.77" width="3.49" shape="263.29,-859.22 263.04,-859.18 260.27,-858.74 258.81,-858.61 257.31,-858.59 255.76,-858.74 254.16,-859.17 252.62,-860.01 251.37,-861.31 250.55,-862.96 250.29,-864.78 250.57,-867.06"/>
    </edge>
    <edge id=":84_4" function="internal">
        <lane id=":84_4_0" index="0" disallow="pedestrian tram rail_urban rail rail_electric rail_fast ship" speed="7.19" length="14.75" width="3.50" shape="253.89,-865.82 253.79,-864.79 254.00,-863.79 254.61,-862.97 255.50,-862.46 256.49,-862.20 257.52,-862.11 258.55,-862.11 259.58,-862.18 260.60,-862.31 262.63,-862.67 265.98,-863.43"/>
    </edge>
    <edge id=":84_5" function="internal">
        <lane id=":84_5_0" index="0" disallow="pedestrian tram rail_urban rail rail_electric rail_fast ship" speed="10.27" length="25.03" width="3.50" shape="253.89,-865.82 253.78,-864.78 253.91,-863.75 254.26,-862.77 254.81,-861.88 255.50,-861.10 256.29,-860.42 257.15,-859.82 258.05,-859.29 259.93,-858.39 261.88,-857.65 264.88,-856.76 267.93,-856.05 272.04,-855.30 274.09,-854.99"/>
    </edge>
    <edge id=":84_6" function="internal">
        <lane id=":84_6_0" index="0" disallow="pedestrian tram rail_urban rail rail_electric rail_fast ship" speed="14.09" length="22.13" width="3.50" shape="253.89,-865.82 253.27,-863.57 252.38,-861.42 251.22,-859.41 249.83,-857.53 248.26,-855.82 245.63,-853.52 242.77,-851.52 239.73,-849.77"/>
    </edge>
    <edge id=":84_7" function="internal">
        <lane id=":84_7_0" index="0" disallow="pedestrian tram rail_urban rail rail_electric rail_fast ship" speed="13.28" length="19.58" width="3.49" shape="238.11,-852.87 240.81,-854.42 243.34,-856.17 245.66,-858.17 247.01,-859.62 248.20,-861.19 249.19,-862.87 249.95,-864.65 250.57,-867.06"/>
    </edge>
    <edge id=":84_8" function="internal">
        <lane id=":84_8_0" index="0" disallow="pedestrian tram rail_urban rail rail_electric rail_fast ship" speed="36.11" length="29.90" width="3.50" shape="238.11,-852.87 244.74,-856.16 250.56,-858.69 256.52,-860.87 261.58,-862.38 265.98,-863.43"/>
    </edge>
    <edge id=":84_9" function="internal">
        <lane id=":84_9_0" index="0" disallow="pedestrian tram rail_urban rail rail_electric rail_fast ship" speed="23.78" length="36.54" width="3.50" shape="238.11,-852.87 240.17,-853.82 243.32,-854.86 246.54,-855.57 250.83,-856.12 255.11,-856.35 260.44,-856.29 266.77,-855.86 274.09,-854.99"/>
    </edge>
    <edge id=":85_0" function="internal">
        <lane id=":85_0_0" index="0" disallow="pedestrian tram rail_urban rail rail_electric rail_fast ship" speed="11.96" length="18.07" width="3.50" shape="280.53,-856.46 278.88,-857.79 277.06,-858.84 275.09,-859.60 273.04,-860.05 270.94,-860.24 268.83,-860.19 266.74,-859.95 263.49,-859.27"/>
    </edge>
    <edge id=":85_1" function="internal">
        <lane id=":85_1_0" index="0" disallow="pedestrian tram rail_urban rail rail_electric rail_fast ship" speed="36.11" length="20.75" width="3.50" shape="280.53,-856.46 277.40,-859.16 274.10,-861.61 269.76,-864.38 265.25,-866.87 263.28,-867.87"/>
    </edge>
    <edge id=":85_2" function="internal">
        <lane id=":85_2_0" index="0" disallow="pedestrian tram rail_urban rail rail_electric rail_fast ship" speed="8.00" length="16.39" width="3.50" shape="280.53,-856.46 279.25,-857.77 278.13,-859.20 277.24,-860.78 276.71,-862.52 276.74,-864.33 277.34,-866.04 278.37,-867.53 279.66,-868.81 281.14,-869.94"/>
    </edge>
    <edge id=":85_3" function="internal">
        <lane id=":85_3_0" index="0" disallow="pedestrian tram rail_urban rail rail_electric rail_fast ship" speed="6.36" length="9.96" width="3.50" shape="283.13,-867.07 282.10,-866.28 281.27,-865.47 280.67,-864.61 280.35,-863.74 280.36,-862.82 280.68,-861.87 281.25,-860.90 282.02,-859.94 282.89,-859.04"/>
    </edge>
    <edge id=":85_4" function="internal">
        <lane id=":85_4_0" index="0" disallow="pedestrian tram rail_urban rail rail_electric rail_fast ship" speed="32.52" length="21.26" width="3.50" shape="283.13,-867.07 280.25,-865.28 277.29,-863.76 273.19,-862.05 268.97,-860.66 263.49,-859.27"/>
    </edge>
    <edge id=":85_5" function="internal">
        <lane id=":85_5_0" index="0" disallow="pedestrian tram rail_urban rail rail_electric rail_fast ship" speed="12.17" length="20.98" width="3.50" shape="283.13,-867.07 282.03,-866.38 280.94,-865.81 279.80,-865.34 278.62,-864.97 277.41,-864.70 276.19,-864.54 273.73,-864.52 271.28,-864.85 268.89,-865.46 266.57,-866.31 263.28,-867.87"/>
    </edge>
    <edge id=":85_6" function="internal">
        <lane id=":85_6_0" index="0" disallow="pedestrian tram rail_urban rail rail_electric rail_fast ship" speed="10.08" length="14.31" width="3.50" shape="267.46,-869.68 267.82,-869.58 269.77,-868.86 271.75,-868.33 273.74,-868.04 275.74,-868.03 276.67,-868.14 277.61,-868.33 278.53,-868.61 279.42,-868.97 280.28,-869.41 281.14,-869.94"/>
    </edge>
    <edge id=":85_7" function="internal">
        <lane id=":85_7_0" index="0" disallow="pedestrian tram rail_urban rail rail_electric rail_fast ship" speed="36.11" length="20.09" width="3.50" shape="267.46,-869.68 266.88,-869.97 271.57,-867.37 276.12,-864.47 279.62,-861.87 282.89,-859.04"/>
    </edge>
    <edge id=":85_8" function="internal">
        <lane id=":85_8_0" index="0" disallow="pedestrian tram rail_urban rail rail_electric rail_fast ship" speed="27.52" length="16.37" width="3.50" shape="266.18,-863.47 267.94,-864.01 271.91,-865.31 275.75,-866.90 278.49,-868.30 281.14,-869.94"/>
    </edge>
    <edge id=":85_9" function="internal">
        <lane id=":85_9_0" index="0" disallow="pedestrian tram rail_urban rail rail_electric rail_fast ship" speed="12.05" length="17.92" width="3.50" shape="266.18,-863.47 266.29,-863.42 268.75,-863.69 271.26,-863.73 273.78,-863.48 276.28,-862.90 278.67,-861.95 280.91,-860.64 282.89,-859.04"/>
    </edge>
    <edge id=":86_0" function="internal">
        <lane id=":86_0_0" index="0" disallow="pedestrian tram rail_urban rail rail_electric rail_fast ship" speed="19.42" length="30.06" width="3.50" shape="243.71,-882.90 243.00,-883.62 240.68,-885.62 238.16,-887.35 235.47,-888.84 232.64,-890.10 229.72,-891.15 225.69,-892.28 221.58,-893.12 216.36,-893.84"/>
    </edge>
    <edge id=":86_1" function="internal">
        <lane id=":86_1_0" index="0" disallow="pedestrian tram rail_urban rail rail_electric rail_fast ship" speed="17.02" length="31.90" width="3.50" shape="243.71,-882.90 242.19,-884.64 240.86,-886.49 239.19,-889.47 237.91,-892.63 236.99,-895.92 236.40,-899.28 236.08,-902.68 236.04,-907.23 236.35,-911.78 236.47,-912.91"/>
    </edge>
    <edge id=":86_2" function="internal">
        <lane id=":86_2_0" index="0" disallow="pedestrian tram rail_urban rail rail_electric rail_fast ship" speed="16.16" length="28.82" width="3.50" shape="239.95,-912.50 239.84,-911.47 239.54,-907.25 239.57,-903.05 239.84,-899.95 240.36,-896.91 241.16,-893.95 242.28,-891.12 243.75,-888.47 244.91,-886.85 246.24,-885.32"/>
    </edge>
    <edge id=":86_3" function="internal">
        <lane id=":86_3_0" index="0" disallow="pedestrian tram rail_urban rail rail_electric rail_fast ship" speed="12.26" length="34.31" width="3.50" shape="239.95,-912.50 239.56,-909.97 238.97,-907.46 238.14,-904.98 237.01,-902.58 235.57,-900.35 234.68,-899.28 233.73,-898.31 232.69,-897.42 231.58,-896.63 230.40,-895.93 229.19,-895.34 227.90,-894.84 225.37,-894.14 222.77,-893.76 220.17,-893.64 216.36,-893.84"/>
    </edge>
    <edge id=":86_4" function="internal">
        <lane id=":86_4_0" index="0" disallow="pedestrian tram rail_urban rail rail_electric rail_fast ship" speed="11.26" length="28.79" width="3.50" shape="216.72,-897.32 220.04,-897.14 222.25,-897.24 224.44,-897.57 226.57,-898.15 227.60,-898.56 228.60,-899.04 229.55,-899.60 230.46,-900.24 231.30,-900.96 232.07,-901.75 232.78,-902.60 233.99,-904.46 234.93,-906.46 235.64,-908.56 236.14,-910.72 236.47,-912.91"/>
    </edge>
    <edge id=":86_5" function="internal">
        <lane id=":86_5_0" index="0" disallow="pedestrian tram rail_urban rail rail_electric rail_fast ship" speed="20.27" length="32.52" width="3.50" shape="216.72,-897.32 222.27,-896.55 226.66,-895.64 230.97,-894.42 234.13,-893.27 237.19,-891.89 240.12,-890.25 242.89,-888.33 245.43,-886.13 246.24,-885.32"/>
    </edge>
    <edge id=":87_0" function="internal">
        <lane id=":87_0_0" index="0" disallow="pedestrian tram rail_urban rail rail_electric rail_fast ship" speed="17.19" length="39.00" width="3.50" shape="268.35,-955.48 263.78,-953.12 259.35,-950.54 255.93,-948.27 252.66,-945.78 250.34,-943.75 248.18,-941.56 246.22,-939.19 244.52,-936.62 243.57,-934.80 242.80,-932.90 242.23,-930.93 241.88,-928.91"/>
    </edge>
    <edge id=":87_1" function="internal">
        <lane id=":87_1_0" index="0" disallow="pedestrian tram rail_urban rail rail_electric rail_fast ship" speed="11.44" length="43.06" width="3.50" shape="268.35,-955.48 263.80,-953.47 260.67,-952.37 257.46,-951.57 255.82,-951.33 254.17,-951.22 252.51,-951.29 250.88,-951.57 249.32,-952.11 247.88,-952.93 246.64,-954.02 245.62,-955.32 244.81,-956.77 244.21,-958.31 243.77,-959.91 243.46,-961.54 243.15,-964.83 243.15,-968.15 243.55,-973.10"/>
    </edge>
    <edge id=":87_2" function="internal">
        <lane id=":87_2_0" index="0" disallow="pedestrian tram rail_urban rail rail_electric rail_fast ship" speed="10.35" length="35.01" width="3.50" shape="247.02,-972.72 246.68,-968.37 246.68,-965.55 246.94,-962.74 247.19,-961.43 247.54,-960.15 248.00,-958.96 248.60,-957.88 249.33,-956.94 250.19,-956.18 251.19,-955.61 252.31,-955.23 253.53,-955.02 254.81,-954.97 256.13,-955.06 257.45,-955.25 260.18,-955.93 262.85,-956.87 266.82,-958.62"/>
    </edge>
    <edge id=":87_3" function="internal">
        <lane id=":87_3_0" index="0" disallow="pedestrian tram rail_urban rail rail_electric rail_fast ship" speed="36.11" length="44.11" width="3.50" shape="247.02,-972.72 244.45,-950.80 241.88,-928.91"/>
    </edge>
    <edge id=":87_4" function="internal">
        <lane id=":87_4_0" index="0" disallow="pedestrian tram rail_urban rail rail_electric rail_fast ship" speed="36.11" length="44.08" width="3.50" shape="238.40,-929.32 240.97,-951.21 243.55,-973.10"/>
    </edge>
    <edge id=":87_5" function="internal">
        <lane id=":87_5_0" index="0" disallow="pedestrian tram rail_urban rail rail_electric rail_fast ship" speed="17.94" length="42.50" width="3.50" shape="238.40,-929.32 238.80,-931.61 239.43,-933.85 240.28,-936.00 241.32,-938.07 243.16,-940.93 245.29,-943.56 247.62,-945.98 250.12,-948.21 253.61,-950.90 257.26,-953.35 261.97,-956.12 266.82,-958.62"/>
    </edge>
    <edge id=":88_0" function="internal">
        <lane id=":88_0_0" index="0" disallow="pedestrian tram rail_urban rail rail_electric rail_fast ship" speed="36.11" length="14.84" width="3.50" shape="325.98,-814.04 319.32,-810.47 312.90,-807.02"/>
    </edge>
    <edge id=":88_1" function="internal">
        <lane id=":88_1_0" index="0" disallow="pedestrian tram rail_urban rail rail_electric rail_fast ship" speed="9.09" length="16.21" width="3.49" shape="325.98,-814.04 320.50,-811.64 318.18,-812.00 316.40,-813.19 312.90,-817.74"/>
    </edge>
    <edge id=":88_2" function="internal">
        <lane id=":88_2_0" index="0" disallow="pedestrian tram rail_urban rail rail_electric rail_fast ship" speed="7.67" length="11.24" width="3.47" shape="315.74,-819.78 318.61,-815.93 319.31,-815.37 320.16,-815.14 324.36,-817.15"/>
    </edge>
    <edge id=":88_3" function="internal">
        <lane id=":88_3_0" index="0" disallow="pedestrian tram rail_urban rail rail_electric rail_fast ship" speed="8.21" length="16.76" width="3.50" shape="315.74,-819.78 319.00,-814.57 319.00,-812.04 317.71,-809.96 312.90,-807.02"/>
    </edge>
    <edge id=":88_4" function="internal">
        <lane id=":88_4_0" index="0" disallow="pedestrian tram rail_urban rail rail_electric rail_fast ship" speed="6.74" length="10.88" width="3.49" shape="311.18,-810.07 315.04,-812.27 315.54,-812.98 315.55,-813.83 312.90,-817.74"/>
    </edge>
    <edge id=":88_5" function="internal">