<routes>
	<vehicle depart="0.1" departLane="0" departPos="6.2" departSpeed="1.8460278" id="331" type="bus">
		<route edges="23492 23577"/>
	</vehicle>
	<vehicle depart="0.1" departLane="0" departPos="15.572881718265426" departSpeed="9.049824" id="31" type="passenger">
		<route edges=":86_1 23491 23456"/>
	</vehicle>
	<vehicle depart="0.1" departLane="0" departPos="11.32253343618135" departSpeed="2.6285733" id="318" type="passenger">
		<route edges="23492 23581"/>
	</vehicle>
	<vehicle depart="0.1" departLane="0" departPos="16.309222597884748" departSpeed="1.5842107" id="320" type="passenger">
		<route edges="23491 23456"/>
	</vehicle>
	<vehicle depart="0.1" departLane="0" departPos="2.5" departSpeed="1.2743824" id="350" type="passenger">
		<route edges=":86_1 23491"/>
	</vehicle>
	<vehicle depart="0.1" departLane="0" departPos="18.452034229415204" departSpeed="0.43128701" id="354" type="passenger">
		<route edges=":84_7 23436"/>
	</vehicle>
	<vehicle depart="0.1" departLane="0" departPos="6.107328133793633" departSpeed="1.6246419" id="359" type="passenger">
		<route edges=":84_7 23436"/>
	</vehicle>
	<vehicle depart="0.1" departLane="0" departPos="18.51335725132049" departSpeed="0.58260173" id="360" type="passenger">
		<route edges=":86_2 23581"/>
	</vehicle>
	<vehicle depart="0.1" departLane="0" departPos="21.687038092192182" departSpeed="0.66839514" id="365" type="passenger">
		<route edges="23578 23581"/>
	</vehicle>
	<vehicle depart="0.1" departLane="0" departPos="19.84231348892948" departSpeed="2.3052453" id="374" type="passenger">
		<route edges="23548 23436"/>
	</vehicle>
</routes>
