<routes>
	<vehicle depart="0.1" departLane="0" departPos="41.86233495638119" departSpeed="2.1447727e-05" id="30" type="passenger">
		<route edges=":28_0 47831"/>
	</vehicle>
	<vehicle depart="0.1" departLane="0" departPos="34.36162322413497" departSpeed="0.0002580014" id="31" type="passenger">
		<route edges=":28_0 47831"/>
	</vehicle>
	<vehicle depart="0.1" departLane="0" departPos="26.85917668562735" departSpeed="0.0018505917" id="34" type="passenger">
		<route edges=":28_0 47831"/>
	</vehicle>
	<vehicle depart="0.1" departLane="0" departPos="19.349584312455722" departSpeed="0.0091302767" id="35" type="passenger">
		<route edges=":28_0 47831"/>
	</vehicle>
	<vehicle depart="0.1" departLane="0" departPos="8.970188576287992" departSpeed="0.77449146" id="37" type="passenger">
		<route edges=":29_1 47756"/>
	</vehicle>
	<vehicle depart="0.1" departLane="0" departPos="49.36197537347849" departSpeed="0.0" id="38" type="passenger">
		<route edges=":28_0 47831"/>
	</vehicle>
	<vehicle depart="0.1" departLane="0" departPos="11.813541360625306" departSpeed="0.037448277" id="313" type="passenger">
		<route edges=":28_0 47831"/>
	</vehicle>
	<vehicle depart="0.1" departLane="0" departPos="16.79668512633947" departSpeed="8.5708915" id="323" type="passenger">
		<route edges=":28_1 47825"/>
	</vehicle>
	<vehicle depart="0.1" departLane="0" departPos="2.5" departSpeed="9.2170795" id="325" type="passenger">
		<route edges=":27_3 47764 47825"/>
	</vehicle>
	<vehicle depart="0.1" departLane="1" departPos="22.4637154247144" departSpeed="8.2416472" id="331" type="passenger">
		<route edges="47760 47756"/>
	</vehicle>
</routes>
