<routes>
	<vehicle depart="0.1" departLane="1" departPos="114.02199644629223" departSpeed="5.8077611" id="1" type="passenger">
		<route edges="26 26 27 24"/>
	</vehicle>
	<vehicle depart="0.1" departLane="0" departPos="0" departSpeed="10.889988" id="2" type="passenger">
		<route edges="26 27 24"/>
	</vehicle>
	<vehicle depart="0.1" departLane="0" departPos="129.03673084146735" departSpeed="5.7961921" id="3" type="passenger">
		<route edges="26 27 24"/>
	</vehicle>
</routes>
