<routes>
	<vehicle depart="0.1" departLane="0" departPos="155.4027076226622" departSpeed="9.9258" id="31" type="passenger">
		<route edges="5"/>
	</vehicle>
	<vehicle depart="0.1" departLane="1" departPos="0" departSpeed="3.0712" id="32" type="passenger">
		<route edges="8 8"/>
	</vehicle>
	<vehicle depart="0.1" departLane="1" departPos="138.25427797999635" departSpeed="9.9242" id="36" type="passenger">
		<route edges="5"/>
	</vehicle>
	<vehicle depart="0.1" departLane="0" departPos="0" departSpeed="6.5112" id="37" type="passenger">
		<route edges="5"/>
	</vehicle>
	<vehicle depart="0.1" departLane="0" departPos="127.58771169789469" departSpeed="9.8007" id="38" type="passenger">
		<route edges="8"/>
	</vehicle>
	<vehicle depart="0.1" departLane="1" departPos="0" departSpeed="4.69" id="39" type="passenger">
		<route edges="5 5"/>
	</vehicle>
	<vehicle depart="0.1" departLane="0" departPos="0" departSpeed="6.6451" id="310" type="passenger">
		<route edges="5 5"/>
	</vehicle>
	<vehicle depart="0.1" departLane="0" departPos="0" departSpeed="9.7515" id="311" type="passenger">
		<route edges="8 8"/>
	</vehicle>
	<vehicle depart="0.1" departLane="0" departPos="0" departSpeed="5.9886" id="313" type="passenger">
		<route edges="5"/>
	</vehicle>
	<vehicle depart="0.1" departLane="1" departPos="0" departSpeed="2.9797" id="314" type="passenger">
		<route edges="8"/>
	</vehicle>
	<vehicle depart="0.1" departLane="0" departPos="0" departSpeed="3.0697" id="315" type="passenger">
		<route edges="8"/>
	</vehicle>
	<vehicle depart="0.1" departLane="1" departPos="0" departSpeed="3.1396" id="316" type="passenger">
		<route edges="8"/>
	</vehicle>
</routes>
