<routes>
	<vehicle depart="0.1" departLane="0" departPos="23.208159607721576" departSpeed="0.47776305" id="322" type="passenger">
		<route edges=":69_1 33203 33179"/>
	</vehicle>
	<vehicle depart="0.1" departLane="0" departPos="19.086033855504674" departSpeed="0.0" id="337" type="passenger">
		<route edges="32823 33046"/>
	</vehicle>
	<vehicle depart="0.1" departLane="0" departPos="11.58506617360544" departSpeed="0.0" id="338" type="passenger">
		<route edges="32823 33046"/>
	</vehicle>
	<vehicle depart="0.1" departLane="0" departPos="2.5" departSpeed="7.9809237e-05" id="344" type="passenger">
		<route edges="32823 33046"/>
	</vehicle>
	<vehicle depart="0.1" departLane="0" departPos="61.58015058942134" departSpeed="0.0038021368" id="351" type="passenger">
		<route edges="32927 32823"/>
	</vehicle>
	<vehicle depart="0.1" departLane="0" departPos="54.06206480681704" departSpeed="0.016890936" id="356" type="passenger">
		<route edges="32927 32823"/>
	</vehicle>
	<vehicle depart="0.1" departLane="0" departPos="21.406828395439305" departSpeed="7.3518447" id="357" type="passenger">
		<route edges=":68_3 33202 32990"/>
	</vehicle>
	<vehicle depart="0.1" departLane="0" departPos="8.237960585172427" departSpeed="8.7683465" id="363" type="passenger">
		<route edges=":68_2 33179 33176"/>
	</vehicle>
	<vehicle depart="0.1" departLane="0" departPos="58.18086376482155" departSpeed="9.8031981" id="369" type="passenger">
		<route edges="33205 33202"/>
	</vehicle>
	<vehicle depart="0.1" departLane="0" departPos="66.58549862876671" departSpeed="0.00066419949" id="345" type="motorcycle">
		<route edges="32927 32823"/>
	</vehicle>
</routes>
