<!-- generated on 2020-12-18 16:47:31.798322 by ipykernel_launcher.py v1_2_0+5214-53edc58fcd
-->
<connections>
	<connection contPos="-4.0" from="54454" fromLane="0" keepClear="true" to="54562" toLane="0"/>
	<connection contPos="-4.0" from="54454" fromLane="0" keepClear="true" to="54559" toLane="0"/>
	<connection contPos="-4.0" from="54455" fromLane="0" keepClear="true" to="54564" toLane="0"/>
	<connection contPos="-4.0" from="54455" fromLane="0" keepClear="true" to="54563" toLane="0"/>
	<connection contPos="-4.0" from="54456" fromLane="0" keepClear="true" to="54565" toLane="0"/>
	<connection contPos="-4.0" from="54456" fromLane="0" keepClear="true" to="54566" toLane="0"/>
	<connection contPos="-4.0" from="54458" fromLane="0" keepClear="true" to="54567" toLane="0"/>
	<connection contPos="-4.0" from="54458" fromLane="0" keepClear="true" to="54568" toLane="0"/>
	<connection contPos="-4.0" from="54459" fromLane="0" keepClear="true" to="54569" toLane="0"/>
	<connection contPos="-4.0" from="54459" fromLane="0" keepClear="true" to="54570" toLane="0"/>
	<connection contPos="-4.0" from="54460" fromLane="0" keepClear="true" to="54571" toLane="0"/>
	<connection contPos="-4.0" from="54460" fromLane="0" keepClear="true" to="54572" toLane="0"/>
	<connection contPos="-4.0" from="54462" fromLane="0" keepClear="true" to="54573" toLane="0"/>
	<connection contPos="-4.0" from="54462" fromLane="0" keepClear="true" to="54574" toLane="0"/>
	<connection contPos="-4.0" from="54463" fromLane="0" keepClear="true" to="54579" toLane="0"/>
	<connection contPos="-4.0" from="54463" fromLane="0" keepClear="true" to="54575" toLane="0"/>
	<connection contPos="-4.0" from="54463" fromLane="0" keepClear="true" to="54581" toLane="0"/>
	<connection contPos="-4.0" from="54467" fromLane="0" keepClear="true" to="54589" toLane="0"/>
	<connection contPos="-4.0" from="54467" fromLane="0" keepClear="true" to="54591" toLane="0"/>
	<connection contPos="-4.0" from="54469" fromLane="0" keepClear="true" to="54598" toLane="0"/>
	<connection contPos="-4.0" from="54469" fromLane="0" keepClear="true" to="54593" toLane="0"/>
	<connection contPos="-4.0" from="54471" fromLane="0" keepClear="true" to="54600" toLane="0"/>
	<connection contPos="-4.0" from="54471" fromLane="0" keepClear="true" to="54599" toLane="0"/>
	<connection contPos="-4.0" from="54473" fromLane="0" keepClear="true" to="54602" toLane="0"/>
	<connection contPos="-4.0" from="54473" fromLane="0" keepClear="true" to="54601" toLane="0"/>
	<connection contPos="-4.0" from="54474" fromLane="0" keepClear="true" to="54605" toLane="0"/>
	<connection contPos="-4.0" from="54474" fromLane="0" keepClear="true" to="54603" toLane="0"/>
	<connection contPos="-4.0" from="54476" fromLane="0" keepClear="true" to="54607" toLane="0"/>
	<connection contPos="-4.0" from="54477" fromLane="0" keepClear="true" to="54583" toLane="0"/>
	<connection contPos="-4.0" from="54477" fromLane="0" keepClear="true" to="54558" toLane="0"/>
	<connection contPos="-4.0" from="54478" fromLane="0" keepClear="true" to="54560" toLane="0"/>
	<connection contPos="-4.0" from="54478" fromLane="0" keepClear="true" to="54561" toLane="0"/>
	<connection contPos="-4.0" from="54479" fromLane="0" keepClear="true" to="54590" toLane="0"/>
	<connection contPos="-4.0" from="54480" fromLane="0" keepClear="true" to="54592" toLane="0"/>
	<connection contPos="-4.0" from="54480" fromLane="0" keepClear="true" to="54587" toLane="0"/>
	<connection contPos="-4.0" from="54483" fromLane="0" keepClear="true" to="54588" toLane="0"/>
	<connection contPos="-4.0" from="54483" fromLane="0" keepClear="true" to="54585" toLane="0"/>
	<connection contPos="-4.0" from="54484" fromLane="0" keepClear="true" to="54584" toLane="0"/>
	<connection contPos="-4.0" from="54484" fromLane="0" keepClear="true" to="54586" toLane="0"/>
	<connection contPos="-4.0" from="54484" fromLane="0" keepClear="true" to="54582" toLane="0"/>
	<connection contPos="-4.0" from="54485" fromLane="0" keepClear="true" to="54580" toLane="0"/>
	<connection contPos="-4.0" from="54485" fromLane="0" keepClear="true" to="54578" toLane="0"/>
	<connection contPos="-4.0" from="54487" fromLane="0" keepClear="true" to="54577" toLane="0"/>
	<connection contPos="-4.0" from="54487" fromLane="0" keepClear="true" to="54576" toLane="0"/>
	<connection contPos="-4.0" from="54487" fromLane="0" keepClear="true" to="54597" toLane="0"/>
	<connection contPos="-4.0" from="54488" fromLane="0" keepClear="true" to="54606" toLane="0"/>
	<connection contPos="-4.0" from="54488" fromLane="0" keepClear="true" to="54604" toLane="0"/>
	<connection contPos="-4.0" from="54491" fromLane="0" keepClear="true" to="54594" toLane="0"/>
	<connection contPos="-4.0" from="54491" fromLane="0" keepClear="true" to="54595" toLane="0"/>
	<connection contPos="-4.0" from="54492" fromLane="0" keepClear="true" to="54596" toLane="0"/>
	<connection contPos="-4.0" from="54492" fromLane="0" keepClear="true" to="54526" toLane="0"/>
	<connection contPos="-4.0" from="54494" fromLane="0" keepClear="true" to="54519" toLane="0"/>
	<connection contPos="-4.0" from="54494" fromLane="0" keepClear="true" to="54520" toLane="0"/>
	<connection contPos="-4.0" from="54495" fromLane="0" keepClear="true" to="54552" toLane="0"/>
	<connection contPos="-4.0" from="54495" fromLane="0" keepClear="true" to="54539" toLane="0"/>
	<connection contPos="-4.0" from="54496" fromLane="0" keepClear="true" to="54530" toLane="0"/>
	<connection contPos="-4.0" from="54496" fromLane="0" keepClear="true" to="54544" toLane="0"/>
	<connection contPos="-4.0" from="54497" fromLane="0" keepClear="true" to="54534" toLane="0"/>
	<connection contPos="-4.0" from="54497" fromLane="0" keepClear="true" to="54518" toLane="0"/>
	<connection contPos="-4.0" from="54498" fromLane="0" keepClear="true" to="54537" toLane="0"/>
	<connection contPos="-4.0" from="54498" fromLane="0" keepClear="true" to="54535" toLane="0"/>
	<connection contPos="-4.0" from="54499" fromLane="0" keepClear="true" to="54547" toLane="0"/>
	<connection contPos="-4.0" from="54499" fromLane="0" keepClear="true" to="54555" toLane="0"/>
	<connection contPos="-4.0" from="54500" fromLane="0" keepClear="true" to="54532" toLane="0"/>
	<connection contPos="-4.0" from="54500" fromLane="0" keepClear="true" to="54529" toLane="0"/>
	<connection contPos="-4.0" from="54501" fromLane="0" keepClear="true" to="54516" toLane="0"/>
	<connection contPos="-4.0" from="54501" fromLane="0" keepClear="true" to="54553" toLane="0"/>
	<connection contPos="-4.0" from="54502" fromLane="0" keepClear="true" to="54523" toLane="0"/>
	<connection contPos="-4.0" from="54502" fromLane="0" keepClear="true" to="54517" toLane="0"/>
	<connection contPos="-4.0" from="54503" fromLane="0" keepClear="true" to="54551" toLane="0"/>
	<connection contPos="-4.0" from="54503" fromLane="0" keepClear="true" to="54556" toLane="0"/>
	<connection contPos="-4.0" from="54504" fromLane="0" keepClear="true" to="54522" toLane="0"/>
	<connection contPos="-4.0" from="54504" fromLane="0" keepClear="true" to="54524" toLane="0"/>
	<connection contPos="-4.0" from="54506" fromLane="0" keepClear="true" to="54542" toLane="0"/>
	<connection contPos="-4.0" from="54506" fromLane="0" keepClear="true" to="54531" toLane="0"/>
	<connection contPos="-4.0" from="54507" fromLane="0" keepClear="true" to="54536" toLane="0"/>
	<connection contPos="-4.0" from="54507" fromLane="0" keepClear="true" to="54549" toLane="0"/>
	<connection contPos="-4.0" from="54508" fromLane="0" keepClear="true" to="54545" toLane="0"/>
	<connection contPos="-4.0" from="54508" fromLane="0" keepClear="true" to="54541" toLane="0"/>
	<connection contPos="-4.0" from="54509" fromLane="0" keepClear="true" to="54533" toLane="0"/>
	<connection contPos="-4.0" from="54509" fromLane="0" keepClear="true" to="54546" toLane="0"/>
	<connection contPos="-4.0" from="54511" fromLane="0" keepClear="true" to="54554" toLane="0"/>
	<connection contPos="-4.0" from="54511" fromLane="0" keepClear="true" to="54525" toLane="0"/>
	<connection contPos="-4.0" from="54512" fromLane="0" keepClear="true" to="54557" toLane="0"/>
	<connection contPos="-4.0" from="54512" fromLane="0" keepClear="true" to="54521" toLane="0"/>
	<connection contPos="-4.0" from="54513" fromLane="0" keepClear="true" to="54527" toLane="0"/>
	<connection contPos="-4.0" from="54513" fromLane="0" keepClear="true" to="54538" toLane="0"/>
	<connection contPos="-4.0" from="54514" fromLane="0" keepClear="true" to="54550" toLane="0"/>
	<connection contPos="-4.0" from="54514" fromLane="0" keepClear="true" to="54540" toLane="0"/>
	<connection contPos="-4.0" from="54514" fromLane="0" keepClear="true" to="54528" toLane="0"/>
	<connection contPos="-4.0" from="54515" fromLane="0" keepClear="true" to="54543" toLane="0"/>
	<connection contPos="-4.0" from="54515" fromLane="0" keepClear="true" to="54548" toLane="0"/>
	<connection contPos="-4.0" from="54516" fromLane="0" keepClear="true" to="54493" toLane="0"/>
	<connection contPos="-4.0" from="54517" fromLane="0" keepClear="true" to="54510" toLane="0"/>
	<connection contPos="-4.0" from="54518" fromLane="0" keepClear="true" to="54458" toLane="0"/>
	<connection contPos="-4.0" from="54519" fromLane="0" keepClear="true" to="54498" toLane="0"/>
	<connection contPos="-4.0" from="54520" fromLane="0" keepClear="true" to="54490" toLane="0"/>
	<connection contPos="-4.0" from="54521" fromLane="0" keepClear="true" to="54461" toLane="0"/>
	<connection contPos="-4.0" from="54522" fromLane="0" keepClear="true" to="54466" toLane="0"/>
	<connection contPos="-4.0" from="54523" fromLane="0" keepClear="true" to="54468" toLane="0"/>
	<connection contPos="-4.0" from="54524" fromLane="0" keepClear="true" to="54506" toLane="0"/>
	<connection contPos="-4.0" from="54525" fromLane="0" keepClear="true" to="54468" toLane="0"/>
	<connection contPos="-4.0" from="54526" fromLane="0" keepClear="true" to="54475" toLane="0"/>
	<connection contPos="-4.0" from="54527" fromLane="0" keepClear="true" to="54501" toLane="0"/>
	<connection contPos="-4.0" from="54528" fromLane="0" keepClear="true" to="54462" toLane="0"/>
	<connection contPos="-4.0" from="54529" fromLane="0" keepClear="true" to="54512" toLane="0"/>
	<connection contPos="-4.0" from="54530" fromLane="0" keepClear="true" to="54499" toLane="0"/>
	<connection contPos="-4.0" from="54531" fromLane="0" keepClear="true" to="54514" toLane="0"/>
	<connection contPos="-4.0" from="54532" fromLane="0" keepClear="true" to="54481" toLane="0"/>
	<connection contPos="-4.0" from="54533" fromLane="0" keepClear="true" to="54463" toLane="0"/>
	<connection contPos="-4.0" from="54534" fromLane="0" keepClear="true" to="54479" toLane="0"/>
	<connection contPos="-4.0" from="54535" fromLane="0" keepClear="true" to="54497" toLane="0"/>
	<connection contPos="-4.0" from="54536" fromLane="0" keepClear="true" to="54505" toLane="0"/>
	<connection contPos="-4.0" from="54537" fromLane="0" keepClear="true" to="54502" toLane="0"/>
	<connection contPos="-4.0" from="54538" fromLane="0" keepClear="true" to="54481" toLane="0"/>
	<connection contPos="-4.0" from="54539" fromLane="0" keepClear="true" to="54509" toLane="0"/>
	<connection contPos="-4.0" from="54540" fromLane="0" keepClear="true" to="54485" toLane="0"/>
	<connection contPos="-4.0" from="54541" fromLane="0" keepClear="true" to="54494" toLane="0"/>
	<connection contPos="-4.0" from="54542" fromLane="0" keepClear="true" to="54470" toLane="0"/>
	<connection contPos="-4.0" from="54543" fromLane="0" keepClear="true" to="54507" toLane="0"/>
	<connection contPos="-4.0" from="54544" fromLane="0" keepClear="true" to="54502" toLane="0"/>
	<connection contPos="-4.0" from="54545" fromLane="0" keepClear="true" to="54482" toLane="0"/>
	<connection contPos="-4.0" from="54546" fromLane="0" keepClear="true" to="54457" toLane="0"/>
	<connection contPos="-4.0" from="54547" fromLane="0" keepClear="true" to="54490" toLane="0"/>
	<connection contPos="-4.0" from="54548" fromLane="0" keepClear="true" to="54470" toLane="0"/>
	<connection contPos="-4.0" from="54549" fromLane="0" keepClear="true" to="54466" toLane="0"/>
	<connection contPos="-4.0" from="54550" fromLane="0" keepClear="true" to="54486" toLane="0"/>
	<connection contPos="-4.0" from="54551" fromLane="0" keepClear="true" to="54499" toLane="0"/>
	<connection contPos="-4.0" from="54552" fromLane="0" keepClear="true" to="54482" toLane="0"/>
	<connection contPos="-4.0" from="54553" fromLane="0" keepClear="true" to="54475" toLane="0"/>
	<connection contPos="-4.0" from="54554" fromLane="0" keepClear="true" to="54503" toLane="0"/>
	<connection contPos="-4.0" from="54555" fromLane="0" keepClear="true" to="54495" toLane="0"/>
	<connection contPos="-4.0" from="54556" fromLane="0" keepClear="true" to="54497" toLane="0"/>
	<connection contPos="-4.0" from="54557" fromLane="0" keepClear="true" to="54454" toLane="0"/>
	<connection contPos="-4.0" from="54558" fromLane="0" keepClear="true" to="54489" toLane="0"/>
	<connection contPos="-4.0" from="54559" fromLane="0" keepClear="true" to="54459" toLane="0"/>
	<connection contPos="-4.0" from="54560" fromLane="0" keepClear="true" to="54458" toLane="0"/>
	<connection contPos="-4.0" from="54561" fromLane="0" keepClear="true" to="54496" toLane="0"/>
	<connection contPos="-4.0" from="54562" fromLane="0" keepClear="true" to="54484" toLane="0"/>
	<connection contPos="-4.0" from="54563" fromLane="0" keepClear="true" to="54513" toLane="0"/>
	<connection contPos="-4.0" from="54564" fromLane="0" keepClear="true" to="54461" toLane="0"/>
	<connection contPos="-4.0" from="54565" fromLane="0" keepClear="true" to="54508" toLane="0"/>
	<connection contPos="-4.0" from="54566" fromLane="0" keepClear="true" to="54463" toLane="0"/>
	<connection contPos="-4.0" from="54567" fromLane="0" keepClear="true" to="54455" toLane="0"/>
	<connection contPos="-4.0" from="54568" fromLane="0" keepClear="true" to="54484" toLane="0"/>
	<connection contPos="-4.0" from="54569" fromLane="0" keepClear="true" to="54496" toLane="0"/>
	<connection contPos="-4.0" from="54570" fromLane="0" keepClear="true" to="54479" toLane="0"/>
	<connection contPos="-4.0" from="54571" fromLane="0" keepClear="true" to="54513" toLane="0"/>
	<connection contPos="-4.0" from="54572" fromLane="0" keepClear="true" to="54454" toLane="0"/>
	<connection contPos="-4.0" from="54573" fromLane="0" keepClear="true" to="54508" toLane="0"/>
	<connection contPos="-4.0" from="54574" fromLane="0" keepClear="true" to="54457" toLane="0"/>
	<connection contPos="-4.0" from="54575" fromLane="0" keepClear="true" to="54486" toLane="0"/>
	<connection contPos="-4.0" from="54576" fromLane="0" keepClear="true" to="54515" toLane="0"/>
	<connection contPos="-4.0" from="54577" fromLane="0" keepClear="true" to="54485" toLane="0"/>
	<connection contPos="-4.0" from="54578" fromLane="0" keepClear="true" to="54455" toLane="0"/>
	<connection contPos="-4.0" from="54579" fromLane="0" keepClear="true" to="54515" toLane="0"/>
	<connection contPos="-4.0" from="54580" fromLane="0" keepClear="true" to="54459" toLane="0"/>
	<connection contPos="-4.0" from="54581" fromLane="0" keepClear="true" to="54485" toLane="0"/>
	<connection contPos="-4.0" from="54582" fromLane="0" keepClear="true" to="54486" toLane="0"/>
	<connection contPos="-4.0" from="54583" fromLane="0" keepClear="true" to="54472" toLane="0"/>
	<connection contPos="-4.0" from="54584" fromLane="0" keepClear="true" to="54462" toLane="0"/>
	<connection contPos="-4.0" from="54585" fromLane="0" keepClear="true" to="54494" toLane="0"/>
	<connection contPos="-4.0" from="54586" fromLane="0" keepClear="true" to="54515" toLane="0"/>
	<connection contPos="-4.0" from="54587" fromLane="0" keepClear="true" to="54512" toLane="0"/>
	<connection contPos="-4.0" from="54588" fromLane="0" keepClear="true" to="54509" toLane="0"/>
	<connection contPos="-4.0" from="54589" fromLane="0" keepClear="true" to="54506" toLane="0"/>
	<connection contPos="-4.0" from="54590" fromLane="0" keepClear="true" to="54477" toLane="0"/>
	<connection contPos="-4.0" from="54591" fromLane="0" keepClear="true" to="54505" toLane="0"/>
	<connection contPos="-4.0" from="54592" fromLane="0" keepClear="true" to="54501" toLane="0"/>
	<connection contPos="-4.0" from="54593" fromLane="0" keepClear="true" to="54503" toLane="0"/>
	<connection contPos="-4.0" from="54594" fromLane="0" keepClear="true" to="54495" toLane="0"/>
	<connection contPos="-4.0" from="54595" fromLane="0" keepClear="true" to="54498" toLane="0"/>
	<connection contPos="-4.0" from="54596" fromLane="0" keepClear="true" to="54500" toLane="0"/>
	<connection contPos="-4.0" from="54597" fromLane="0" keepClear="true" to="54462" toLane="0"/>
	<connection contPos="-4.0" from="54598" fromLane="0" keepClear="true" to="54510" toLane="0"/>
	<connection contPos="-4.0" from="54599" fromLane="0" keepClear="true" to="54514" toLane="0"/>
	<connection contPos="-4.0" from="54600" fromLane="0" keepClear="true" to="54507" toLane="0"/>
	<connection contPos="-4.0" from="54601" fromLane="0" keepClear="true" to="54476" toLane="0"/>
	<connection contPos="-4.0" from="54602" fromLane="0" keepClear="true" to="54489" toLane="0"/>
	<connection contPos="-4.0" from="54603" fromLane="0" keepClear="true" to="54493" toLane="0"/>
	<connection contPos="-4.0" from="54604" fromLane="0" keepClear="true" to="54476" toLane="0"/>
	<connection contPos="-4.0" from="54605" fromLane="0" keepClear="true" to="54500" toLane="0"/>
	<connection contPos="-4.0" from="54606" fromLane="0" keepClear="true" to="54472" toLane="0"/>
	<connection contPos="-4.0" from="54607" fromLane="0" keepClear="true" to="54478" toLane="0"/>
</connections>
