<!-- generated on 2020-12-18 16:47:31.884985 by ipykernel_launcher.py v1_2_0+5214-53edc58fcd
-->
<tlLogics/>
