<?xml version="1.0" encoding="UTF-8"?>

<!-- generated on Fri Dec 18 16:47:31 2020 by Eclipse SUMO netconvert Version 1.8.0
<configuration xmlns:xsi="http://www.w3.org/2001/XMLSchema-instance" xsi:noNamespaceSchemaLocation="http://sumo.dlr.de/xsd/netconvertConfiguration.xsd">

    <input>
        <node-files value="./converted_scenarios/SUMO/DEU_Gar-3_4_I-1-1/nodes.net.xml"/>
        <edge-files value="./converted_scenarios/SUMO/DEU_Gar-3_4_I-1-1/edges.net.xml"/>
        <connection-files value="./converted_scenarios/SUMO/DEU_Gar-3_4_I-1-1/_connections.net.xml"/>
        <tllogic-files value="./converted_scenarios/SUMO/DEU_Gar-3_4_I-1-1/_tll.net.xml"/>
    </input>

    <output>
        <output-file value="./converted_scenarios/SUMO/DEU_Gar-3_4_I-1-1/DEU_Gar-3_4_I-1-1.net.xml"/>
    </output>

    <processing>
        <plain.extend-edge-shape value="true"/>
        <geometry.remove.keep-edges.explicit value="true"/>
        <geometry.avoid-overlap value="true"/>
        <offset.disable-normalization value="true"/>
    </processing>

    <junctions>
        <no-turnarounds value="true"/>
        <junctions.internal-link-detail value="20"/>
    </junctions>

    <report>
        <aggregate-warnings value="5"/>
    </report>

    <random_number>
        <seed value="1234"/>
    </random_number>

</configuration>
-->

<net version="1.6" junctionCornerDetail="5" junctionLinkDetail="20" limitTurnSpeed="5.50" xmlns:xsi="http://www.w3.org/2001/XMLSchema-instance" xsi:noNamespaceSchemaLocation="http://sumo.dlr.de/xsd/net_file.xsd">

    <location netOffset="0.00,0.00" convBoundary="696641.73,5346477.45,697008.18,5346833.35" origBoundary="696641.73,5346477.45,697008.18,5346833.35" projParameter="!"/>

    <edge id=":1_0" function="internal">
        <lane id=":1_0_0" index="0" disallow="rail_fast" speed="36.11" length="8.75" width="2.50" shape="696898.07,5346589.25 696889.31,5346589.13"/>
    </edge>
    <edge id=":1_1" function="internal">
        <lane id=":1_1_0" index="0" disallow="bus truck rail_fast" speed="10.30" length="9.55" width="2.50" shape="696898.00,5346586.32 696897.50,5346586.79 696897.03,5346587.20 696896.60,5346587.57 696896.19,5346587.89 696895.79,5346588.16 696895.42,5346588.39 696895.05,5346588.59 696894.68,5346588.75 696894.32,5346588.87 696893.94,5346588.97 696893.55,5346589.05 696893.14,5346589.10 696892.71,5346589.14 696892.25,5346589.16 696891.76,5346589.16 696891.22,5346589.16 696890.64,5346589.15 696890.01,5346589.14 696889.31,5346589.13"/>
    </edge>
    <edge id=":10_0" function="internal">
        <lane id=":10_0_0" index="0" disallow="bus truck rail_fast" speed="6.02" length="8.32" width="2.50" shape="696841.49,5346577.76 696841.33,5346578.54 696841.18,5346579.27 696841.06,5346579.96 696840.96,5346580.61 696840.87,5346581.22 696840.81,5346581.79 696840.77,5346582.32 696840.75,5346582.82 696840.74,5346583.27 696840.76,5346583.68 696840.80,5346584.05 696840.86,5346584.37 696840.94,5346584.66 696841.04,5346584.91 696841.16,5346585.12 696841.30,5346585.29 696841.47,5346585.42 696841.65,5346585.50 696841.85,5346585.55"/>
    </edge>
    <edge id=":10_1" function="internal">
        <lane id=":10_1_0" index="0" disallow="bus truck rail_fast" speed="36.11" length="9.40" width="2.50" shape="696841.49,5346577.76 696839.59,5346586.97"/>
    </edge>
    <edge id=":100_0" function="internal">
        <lane id=":100_0_0" index="0" disallow="rail_fast" speed="36.11" length="9.74" width="2.41" shape="696783.38,5346550.14 696793.09,5346549.43"/>
    </edge>
    <edge id=":100_1" function="internal">
        <lane id=":100_1_0" index="0" disallow="bus truck rail_fast" speed="8.21" length="10.40" width="2.41" shape="696783.38,5346550.14 696784.19,5346550.09 696784.96,5346550.06 696785.70,5346550.05 696786.41,5346550.07 696787.08,5346550.10 696787.72,5346550.15 696788.32,5346550.23 696788.89,5346550.33 696789.43,5346550.44 696789.93,5346550.58 696790.40,5346550.74 696790.83,5346550.92 696791.23,5346551.12 696791.60,5346551.34 696791.93,5346551.58 696792.23,5346551.85 696792.49,5346552.13 696792.72,5346552.44 696792.92,5346552.76"/>
    </edge>
    <edge id=":102_0" function="internal">
        <lane id=":102_0_0" index="0" disallow="rail_fast" speed="36.11" length="8.93" width="2.50" shape="696949.87,5346717.64 696940.94,5346717.65"/>
    </edge>
    <edge id=":102_1" function="internal">
        <lane id=":102_1_0" index="0" disallow="bus truck rail_fast" speed="7.64" length="10.12" width="2.49" shape="696949.87,5346717.64 696949.04,5346717.64 696948.26,5346717.61 696947.51,5346717.57 696946.80,5346717.51 696946.13,5346717.44 696945.50,5346717.34 696944.90,5346717.23 696944.35,5346717.10 696943.84,5346716.95 696943.36,5346716.78 696942.93,5346716.60 696942.53,5346716.40 696942.17,5346716.18 696941.85,5346715.94 696941.58,5346715.69 696941.34,5346715.42 696941.13,5346715.12 696940.97,5346714.82 696940.85,5346714.49"/>
    </edge>
    <edge id=":103_0" function="internal">
        <lane id=":103_0_0" index="0" disallow="bus truck rail_fast" speed="23.09" length="6.94" width="2.50" shape="696943.19,5346713.98 696943.67,5346714.15 696944.12,5346714.30 696944.52,5346714.43 696944.88,5346714.55 696945.22,5346714.66 696945.53,5346714.75 696945.82,5346714.83 696946.10,5346714.90 696946.37,5346714.96 696946.64,5346715.01 696946.92,5346715.05 696947.21,5346715.08 696947.51,5346715.10 696947.83,5346715.12 696948.18,5346715.13 696948.56,5346715.14 696948.99,5346715.14 696949.45,5346715.15 696949.97,5346715.14"/>
    </edge>
    <edge id=":103_1" function="internal">
        <lane id=":103_1_0" index="0" disallow="rail_fast" speed="36.11" length="9.03" width="2.50" shape="696940.94,5346715.15 696949.97,5346715.14"/>
    </edge>
    <edge id=":105_0" function="internal">
        <lane id=":105_0_0" index="0" disallow="rail_fast" speed="36.11" length="10.64" width="2.40" shape="696940.74,5346717.65 696930.10,5346717.71"/>
    </edge>
    <edge id=":105_1" function="internal">
        <lane id=":105_1_0" index="0" disallow="bus truck rail_fast" speed="11.01" length="11.26" width="2.40" shape="696940.66,5346714.66 696940.34,5346714.97 696939.99,5346715.27 696939.61,5346715.54 696939.21,5346715.80 696938.78,5346716.05 696938.32,5346716.27 696937.84,5346716.48 696937.34,5346716.68 696936.81,5346716.85 696936.25,5346717.01 696935.67,5346717.16 696935.06,5346717.29 696934.43,5346717.40 696933.77,5346717.49 696933.09,5346717.57 696932.38,5346717.63 696931.65,5346717.67 696930.89,5346717.70 696930.10,5346717.71"/>
    </edge>
    <edge id=":106_0" function="internal">
        <lane id=":106_0_0" index="0" disallow="rail_fast" speed="36.11" length="10.93" width="2.50" shape="696883.85,5346717.89 696872.91,5346717.85"/>
    </edge>
    <edge id=":106_1" function="internal">
        <lane id=":106_1_0" index="0" disallow="bus truck rail_fast" speed="7.71" length="10.47" width="2.44" shape="696883.85,5346717.89 696882.98,5346717.89 696882.15,5346717.86 696881.36,5346717.82 696880.62,5346717.76 696879.92,5346717.69 696879.26,5346717.59 696878.64,5346717.48 696878.06,5346717.35 696877.52,5346717.21 696877.03,5346717.04 696876.58,5346716.86 696876.17,5346716.66 696875.80,5346716.44 696875.47,5346716.21 696875.18,5346715.96 696874.94,5346715.69 696874.74,5346715.40 696874.58,5346715.09 696874.46,5346714.77"/>
    </edge>
    <edge id=":107_0" function="internal">
        <lane id=":107_0_0" index="0" disallow="bus truck rail_fast" speed="22.71" length="6.90" width="2.40" shape="696876.83,5346714.23 696877.32,5346714.40 696877.76,5346714.55 696878.16,5346714.69 696878.52,5346714.81 696878.85,5346714.91 696879.16,5346715.00 696879.45,5346715.08 696879.73,5346715.15 696880.00,5346715.21 696880.27,5346715.26 696880.55,5346715.30 696880.83,5346715.33 696881.13,5346715.35 696881.45,5346715.37 696881.80,5346715.38 696882.18,5346715.39 696882.60,5346715.39 696883.07,5346715.39 696883.58,5346715.39"/>
    </edge>
    <edge id=":107_1" function="internal">
        <lane id=":107_1_0" index="0" disallow="rail_fast" speed="36.11" length="9.03" width="2.40" shape="696874.54,5346715.35 696883.58,5346715.39"/>
    </edge>
    <edge id=":108_0" function="internal">
        <lane id=":108_0_0" index="0" disallow="bus truck rail_fast" speed="6.49" length="7.91" width="2.40" shape="696931.89,5346715.21 696932.59,5346715.20 696933.26,5346715.18 696933.90,5346715.15 696934.49,5346715.11 696935.06,5346715.06 696935.58,5346714.99 696936.07,5346714.92 696936.52,5346714.84 696936.94,5346714.74 696937.32,5346714.64 696937.67,5346714.52 696937.98,5346714.39 696938.25,5346714.25 696938.49,5346714.10 696938.69,5346713.94 696938.86,5346713.77 696938.98,5346713.59 696939.08,5346713.40 696939.13,5346713.19"/>
    </edge>
    <edge id=":108_1" function="internal">
        <lane id=":108_1_0" index="0" disallow="rail_fast" speed="36.11" length="8.86" width="2.40" shape="696931.89,5346715.21 696940.74,5346715.15"/>
    </edge>
    <edge id=":109_0" function="internal">
        <lane id=":109_0_0" index="0" disallow="bus truck rail_fast" speed="36.11" length="8.66" width="2.49" shape="696756.98,5346728.27 696754.17,5346720.09"/>
    </edge>
    <edge id=":109_1" function="internal">
        <lane id=":109_1_0" index="0" disallow="bus truck rail_fast" speed="11.04" length="9.29" width="2.49" shape="696759.71,5346727.13 696759.12,5346726.79 696758.60,5346726.47 696758.13,5346726.16 696757.71,5346725.88 696757.33,5346725.60 696757.00,5346725.33 696756.69,5346725.05 696756.42,5346724.77 696756.18,5346724.49 696755.95,5346724.19 696755.74,5346723.87 696755.55,5346723.52 696755.36,5346723.15 696755.18,5346722.75 696755.00,5346722.31 696754.81,5346721.83 696754.61,5346721.30 696754.40,5346720.72 696754.17,5346720.09"/>
    </edge>
    <edge id=":11_0" function="internal">
        <lane id=":11_0_0" index="0" disallow="bus truck rail_fast" speed="9.27" length="9.54" width="2.49" shape="696840.21,5346586.90 696839.95,5346586.55 696839.71,5346586.19 696839.49,5346585.81 696839.29,5346585.42 696839.11,5346585.02 696838.96,5346584.60 696838.82,5346584.16 696838.71,5346583.71 696838.62,5346583.25 696838.55,5346582.76 696838.51,5346582.27 696838.48,5346581.76 696838.48,5346581.24 696838.50,5346580.70 696838.54,5346580.14 696838.60,5346579.57 696838.68,5346578.99 696838.79,5346578.39 696838.91,5346577.77"/>
    </edge>
    <edge id=":11_1" function="internal">
        <lane id=":11_1_0" index="0" disallow="bus truck rail_fast" speed="36.11" length="9.00" width="2.49" shape="696837.11,5346586.59 696838.91,5346577.77"/>
    </edge>
    <edge id=":110_0" function="internal">
        <lane id=":110_0_0" index="0" disallow="bus truck rail_fast" speed="9.35" length="7.14" width="2.44" shape="696751.67,5346713.17 696751.51,5346712.68 696751.38,5346712.22 696751.27,5346711.79 696751.19,5346711.39 696751.12,5346711.00 696751.07,5346710.64 696751.01,5346710.30 696750.96,5346709.98 696750.90,5346709.68 696750.82,5346709.39 696750.73,5346709.11 696750.62,5346708.84 696750.47,5346708.58 696750.29,5346708.32 696750.07,5346708.07 696749.81,5346707.82 696749.49,5346707.58 696749.11,5346707.33 696748.67,5346707.07"/>
    </edge>
    <edge id=":110_1" function="internal">
        <lane id=":110_1_0" index="0" disallow="bus truck rail_fast" speed="7.77" length="7.52" width="2.50" shape="696751.67,5346713.17 696751.47,5346712.58 696751.28,5346712.02 696751.11,5346711.48 696750.95,5346710.96 696750.82,5346710.46 696750.70,5346709.99 696750.60,5346709.53 696750.52,5346709.11 696750.45,5346708.70 696750.41,5346708.32 696750.38,5346707.96 696750.37,5346707.62 696750.37,5346707.31 696750.40,5346707.02 696750.44,5346706.75 696750.50,5346706.51 696750.58,5346706.29 696750.67,5346706.09 696750.79,5346705.91"/>
    </edge>
    <edge id=":111_0" function="internal">
        <lane id=":111_0_0" index="0" disallow="bus truck rail_fast" speed="4.62" length="8.83" width="2.49" shape="696752.24,5346704.21 696754.21,5346712.82"/>
    </edge>
    <edge id=":111_1" function="internal">
        <lane id=":111_1_0" index="0" disallow="bus truck rail_fast" speed="23.64" length="8.12" width="2.49" shape="696750.43,5346705.71 696750.81,5346706.18 696751.15,5346706.60 696751.46,5346706.99 696751.73,5346707.35 696751.97,5346707.68 696752.18,5346707.99 696752.37,5346708.29 696752.54,5346708.58 696752.69,5346708.87 696752.84,5346709.15 696752.97,5346709.45 696753.10,5346709.76 696753.23,5346710.10 696753.37,5346710.45 696753.51,5346710.84 696753.66,5346711.27 696753.82,5346711.73 696754.01,5346712.25 696754.21,5346712.82"/>
    </edge>
    <edge id=":112_0" function="internal">
        <lane id=":112_0_0" index="0" disallow="bus truck rail_fast" speed="6.70" length="7.27" width="2.44" shape="696756.68,5346719.66 696756.89,5346720.23 696757.10,5346720.76 696757.31,5346721.26 696757.53,5346721.73 696757.74,5346722.17 696757.96,5346722.58 696758.18,5346722.96 696758.39,5346723.31 696758.61,5346723.63 696758.84,5346723.92 696759.06,5346724.18 696759.28,5346724.41 696759.51,5346724.60 696759.74,5346724.77 696759.96,5346724.91 696760.19,5346725.01 696760.43,5346725.09 696760.66,5346725.13 696760.89,5346725.15"/>
    </edge>
    <edge id=":112_1" function="internal">
        <lane id=":112_1_0" index="0" disallow="bus truck rail_fast" speed="36.11" length="8.37" width="2.51" shape="696756.68,5346719.66 696759.40,5346727.58"/>
    </edge>
    <edge id=":113_0" function="internal">
        <lane id=":113_0_0" index="0" disallow="bus truck rail_fast" speed="21.42" length="7.15" width="2.52" shape="696732.31,5346558.12 696731.79,5346558.01 696731.32,5346557.90 696730.90,5346557.80 696730.51,5346557.72 696730.16,5346557.64 696729.83,5346557.58 696729.52,5346557.52 696729.23,5346557.48 696728.94,5346557.45 696728.66,5346557.42 696728.37,5346557.41 696728.08,5346557.41 696727.76,5346557.42 696727.43,5346557.43 696727.07,5346557.46 696726.68,5346557.50 696726.25,5346557.54 696725.77,5346557.60 696725.24,5346557.66"/>
    </edge>
    <edge id=":113_1" function="internal">
        <lane id=":113_1_0" index="0" disallow="rail_fast" speed="36.11" length="9.18" width="2.52" shape="696734.37,5346556.74 696725.24,5346557.66"/>
    </edge>
    <edge id=":116_0" function="internal">
        <lane id=":116_0_0" index="0" disallow="rail_fast" speed="36.11" length="9.25" width="2.41" shape="696724.94,5346555.21 696734.14,5346554.24"/>
    </edge>
    <edge id=":116_1" function="internal">
        <lane id=":116_1_0" index="0" disallow="bus truck rail_fast" speed="7.79" length="10.41" width="2.41" shape="696724.94,5346555.21 696725.78,5346555.12 696726.59,5346555.05 696727.36,5346555.00 696728.09,5346554.97 696728.79,5346554.97 696729.44,5346554.99 696730.06,5346555.03 696730.64,5346555.10 696731.19,5346555.18 696731.69,5346555.29 696732.16,5346555.43 696732.59,5346555.58 696732.99,5346555.76 696733.34,5346555.96 696733.66,5346556.18 696733.94,5346556.42 696734.19,5346556.69 696734.39,5346556.98 696734.56,5346557.29"/>
    </edge>
    <edge id=":117_0" function="internal">
        <lane id=":117_0_0" index="0" disallow="bus truck rail_fast" speed="26.16" length="6.84" width="2.50" shape="696925.39,5346590.78 696924.90,5346590.61 696924.47,5346590.46 696924.08,5346590.32 696923.72,5346590.20 696923.39,5346590.10 696923.08,5346590.00 696922.80,5346589.92 696922.52,5346589.85 696922.25,5346589.78 696921.99,5346589.73 696921.72,5346589.69 696921.44,5346589.65 696921.14,5346589.62 696920.82,5346589.59 696920.48,5346589.57 696920.10,5346589.56 696919.69,5346589.54 696919.23,5346589.54 696918.72,5346589.53"/>
    </edge>
    <edge id=":117_1" function="internal">
        <lane id=":117_1_0" index="0" disallow="rail_fast" speed="36.11" length="8.90" width="2.50" shape="696927.62,5346589.65 696918.72,5346589.53"/>
    </edge>
    <edge id=":118_0" function="internal">
        <lane id=":118_0_0" index="0" disallow="rail_fast" speed="36.11" length="8.74" width="2.50" shape="696907.00,5346589.37 696898.27,5346589.25"/>
    </edge>
    <edge id=":118_1" function="internal">
        <lane id=":118_1_0" index="0" disallow="bus truck rail_fast" speed="7.70" length="9.81" width="2.48" shape="696907.00,5346589.37 696906.21,5346589.35 696905.46,5346589.32 696904.74,5346589.26 696904.06,5346589.20 696903.41,5346589.11 696902.80,5346589.01 696902.23,5346588.89 696901.70,5346588.76 696901.20,5346588.61 696900.74,5346588.44 696900.32,5346588.26 696899.93,5346588.06 696899.58,5346587.85 696899.27,5346587.62 696898.99,5346587.37 696898.75,5346587.10 696898.55,5346586.82 696898.39,5346586.53 696898.26,5346586.21"/>
    </edge>
    <edge id=":119_0" function="internal">
        <lane id=":119_0_0" index="0" disallow="bus truck rail_fast" speed="23.63" length="5.73" width="2.50" shape="696900.57,5346585.66 696900.98,5346585.80 696901.34,5346585.93 696901.67,5346586.05 696901.97,5346586.16 696902.24,5346586.26 696902.50,5346586.35 696902.73,5346586.43 696902.96,5346586.50 696903.18,5346586.56 696903.40,5346586.62 696903.63,5346586.67 696903.86,5346586.71 696904.11,5346586.75 696904.37,5346586.78 696904.66,5346586.80 696904.97,5346586.82 696905.32,5346586.84 696905.70,5346586.85 696906.13,5346586.86"/>
    </edge>
    <edge id=":119_1" function="internal">
        <lane id=":119_1_0" index="0" disallow="rail_fast" speed="36.11" length="7.80" width="2.50" shape="696898.33,5346586.75 696906.13,5346586.86"/>
    </edge>
    <edge id=":12_0" function="internal">
        <lane id=":12_0_0" index="0" disallow="bus truck rail_fast" speed="6.46" length="10.36" width="2.49" shape="696843.68,5346556.15 696843.85,5346555.32 696843.98,5346554.54 696844.07,5346553.80 696844.13,5346553.10 696844.15,5346552.44 696844.13,5346551.83 696844.08,5346551.27 696843.99,5346550.74 696843.86,5346550.26 696843.69,5346549.83 696843.49,5346549.44 696843.25,5346549.09 696842.97,5346548.78 696842.65,5346548.52 696842.30,5346548.31 696841.91,5346548.13 696841.49,5346548.00 696841.02,5346547.92 696840.52,5346547.87"/>
    </edge>
    <edge id=":12_1" function="internal">
        <lane id=":12_1_0" index="0" disallow="rail_fast" speed="36.11" length="9.94" width="2.49" shape="696843.68,5346556.15 696845.77,5346546.44"/>
    </edge>
    <edge id=":120_0" function="internal">
        <lane id=":120_0_0" index="0" disallow="rail_fast" speed="36.11" length="8.38" width="2.50" shape="696919.27,5346587.03 696927.65,5346587.15"/>
    </edge>
    <edge id=":120_1" function="internal">
        <lane id=":120_1_0" index="0" disallow="bus truck rail_fast" speed="7.56" length="9.60" width="2.45" shape="696919.27,5346587.03 696920.04,5346587.05 696920.78,5346587.09 696921.48,5346587.14 696922.15,5346587.21 696922.78,5346587.29 696923.37,5346587.39 696923.93,5346587.51 696924.45,5346587.64 696924.93,5346587.79 696925.38,5346587.96 696925.79,5346588.14 696926.17,5346588.34 696926.51,5346588.56 696926.81,5346588.79 696927.08,5346589.03 696927.31,5346589.30 696927.50,5346589.58 696927.66,5346589.88 696927.78,5346590.19"/>
    </edge>
    <edge id=":121_0" function="internal">
        <lane id=":121_0_0" index="0" disallow="bus truck rail_fast" speed="36.11" length="3.12" width="2.41" shape="696868.52,5346717.85 696865.40,5346717.83"/>
    </edge>
    <edge id=":121_1" function="internal">
        <lane id=":121_1_0" index="0" disallow="bus truck rail_fast" speed="36.11" length="3.14" width="2.41" shape="696868.52,5346717.84 696868.29,5346717.88 696868.09,5346717.91 696867.90,5346717.94 696867.73,5346717.96 696867.57,5346717.97 696867.43,5346717.97 696867.29,5346717.97 696867.16,5346717.97 696867.04,5346717.96 696866.91,5346717.95 696866.79,5346717.93 696866.66,5346717.92 696866.52,5346717.90 696866.37,5346717.89 696866.21,5346717.87 696866.04,5346717.86 696865.85,5346717.85 696865.64,5346717.84 696865.40,5346717.83"/>
    </edge>
    <edge id=":122_0" function="internal">
        <lane id=":122_0_0" index="0" disallow="bus truck rail_fast" speed="7.36" length="8.54" width="2.42" shape="696835.57,5346718.32 696834.83,5346718.40 696834.13,5346718.48 696833.46,5346718.58 696832.83,5346718.68 696832.24,5346718.78 696831.68,5346718.90 696831.16,5346719.02 696830.68,5346719.15 696830.23,5346719.28 696829.82,5346719.42 696829.45,5346719.57 696829.11,5346719.73 696828.81,5346719.89 696828.55,5346720.06 696828.32,5346720.24 696828.13,5346720.42 696827.98,5346720.62 696827.86,5346720.82 696827.78,5346721.02"/>
    </edge>
    <edge id=":122_1" function="internal">
        <lane id=":122_1_0" index="0" disallow="bus truck rail_fast" speed="36.11" length="9.54" width="2.42" shape="696835.57,5346718.32 696826.13,5346719.67"/>
    </edge>
    <edge id=":122_2" function="internal">
        <lane id=":122_2_0" index="0" disallow="bus truck rail_fast" speed="7.93" length="9.42" width="2.42" shape="696835.57,5346718.32 696834.76,5346718.39 696833.99,5346718.45 696833.26,5346718.49 696832.56,5346718.52 696831.90,5346718.53 696831.28,5346718.53 696830.70,5346718.51 696830.15,5346718.48 696829.64,5346718.43 696829.16,5346718.37 696828.72,5346718.29 696828.32,5346718.19 696827.96,5346718.08 696827.63,5346717.96 696827.34,5346717.81 696827.08,5346717.66 696826.87,5346717.49 696826.68,5346717.30 696826.54,5346717.09"/>
    </edge>
    <edge id=":123_0" function="internal">
        <lane id=":123_0_0" index="0" disallow="bus truck rail_fast" speed="36.11" length="6.29" width="2.50" shape="696828.86,5346716.01 696829.33,5346716.03 696829.75,5346716.05 696830.13,5346716.07 696830.48,5346716.08 696830.80,5346716.09 696831.09,5346716.10 696831.36,5346716.11 696831.62,5346716.11 696831.88,5346716.11 696832.12,5346716.11 696832.37,5346716.10 696832.63,5346716.09 696832.91,5346716.07 696833.20,5346716.05 696833.51,5346716.03 696833.86,5346716.00 696834.24,5346715.97 696834.66,5346715.93 696835.13,5346715.88"/>
    </edge>
    <edge id=":123_1" function="internal">
        <lane id=":123_1_0" index="0" disallow="bus truck rail_fast" speed="36.11" length="10.31" width="2.50" shape="696824.92,5346717.30 696835.13,5346715.88"/>
    </edge>
    <edge id=":123_2" function="internal">
        <lane id=":123_2_0" index="0" disallow="bus truck rail_fast" speed="17.92" length="8.93" width="2.50" shape="696826.77,5346718.65 696827.35,5346718.33 696827.87,5346718.03 696828.34,5346717.77 696828.78,5346717.53 696829.18,5346717.32 696829.55,5346717.13 696829.90,5346716.96 696830.24,5346716.81 696830.58,5346716.68 696830.91,5346716.56 696831.26,5346716.46 696831.62,5346716.37 696832.00,5346716.28 696832.41,5346716.21 696832.85,5346716.14 696833.34,5346716.07 696833.88,5346716.01 696834.47,5346715.95 696835.13,5346715.88"/>
    </edge>
    <edge id=":124_0" function="internal">
        <lane id=":124_0_0" index="0" disallow="bus truck rail_fast" speed="6.10" length="6.83" width="2.43" shape="696866.57,5346715.35 696867.16,5346715.35 696867.72,5346715.34 696868.25,5346715.31 696868.75,5346715.28 696869.22,5346715.24 696869.67,5346715.18 696870.08,5346715.12 696870.46,5346715.04 696870.81,5346714.95 696871.14,5346714.85 696871.43,5346714.74 696871.70,5346714.62 696871.93,5346714.48 696872.14,5346714.34 696872.31,5346714.18 696872.46,5346714.02 696872.58,5346713.84 696872.66,5346713.65 696872.72,5346713.45"/>
    </edge>
    <edge id=":124_1" function="internal">
        <lane id=":124_1_0" index="0" disallow="bus truck rail_fast" speed="36.11" length="7.77" width="2.40" shape="696866.57,5346715.35 696874.35,5346715.35"/>
    </edge>
    <edge id=":14_0" function="internal">
        <lane id=":14_0_0" index="0" disallow="bus truck rail_fast" speed="6.33" length="6.63" width="2.42" shape="696899.69,5346579.14 696899.68,5346579.33 696899.68,5346579.59 696899.67,5346579.89 696899.66,5346580.24 696899.65,5346580.63 696899.65,5346581.04 696899.65,5346581.48 696899.65,5346581.93 696899.67,5346582.39 696899.68,5346582.85 696899.71,5346583.30 696899.75,5346583.73 696899.80,5346584.13 696899.86,5346584.50 696899.93,5346584.84 696900.02,5346585.12 696900.12,5346585.34 696900.25,5346585.51 696900.39,5346585.60"/>
    </edge>
    <edge id=":14_1" function="internal">
        <lane id=":14_1_0" index="0" disallow="bus truck rail_fast" speed="8.92" length="7.34" width="2.49" shape="696899.69,5346579.14 696899.67,5346579.73 696899.65,5346580.29 696899.62,5346580.83 696899.58,5346581.34 696899.54,5346581.83 696899.49,5346582.30 696899.43,5346582.74 696899.36,5346583.16 696899.29,5346583.55 696899.21,5346583.92 696899.12,5346584.27 696899.02,5346584.59 696898.92,5346584.89 696898.81,5346585.17 696898.69,5346585.42 696898.57,5346585.64 696898.43,5346585.85 696898.29,5346586.03 696898.15,5346586.18"/>
    </edge>
    <edge id=":15_0" function="internal">
        <lane id=":15_0_0" index="0" disallow="bus truck rail_fast" speed="21.25" length="7.13" width="2.50" shape="696898.19,5346586.03 696898.02,5346585.52 696897.87,5346585.07 696897.74,5346584.66 696897.62,5346584.28 696897.52,5346583.94 696897.43,5346583.62 696897.36,5346583.32 696897.30,5346583.03 696897.25,5346582.74 696897.22,5346582.46 696897.19,5346582.18 696897.17,5346581.88 696897.16,5346581.57 696897.15,5346581.24 696897.15,5346580.88 696897.16,5346580.48 696897.16,5346580.05 696897.17,5346579.57 696897.18,5346579.04"/>
    </edge>
    <edge id=":15_1" function="internal">
        <lane id=":15_1_0" index="0" disallow="bus truck rail_fast" speed="36.11" length="5.65" width="2.50" shape="696896.52,5346584.64 696896.60,5346584.22 696896.67,5346583.85 696896.74,5346583.51 696896.80,5346583.20 696896.85,5346582.92 696896.90,5346582.66 696896.94,5346582.42 696896.98,5346582.19 696897.01,5346581.97 696897.04,5346581.75 696897.07,5346581.52 696897.09,5346581.29 696897.11,5346581.04 696897.13,5346580.78 696897.14,5346580.50 696897.15,5346580.19 696897.16,5346579.84 696897.17,5346579.46 696897.18,5346579.04"/>
    </edge>
    <edge id=":17_0" function="internal">
        <lane id=":17_0_0" index="0" disallow="bus truck rail_fast" speed="36.11" length="7.44" width="2.43" shape="696822.51,5346720.85 696821.95,5346720.85 696821.45,5346720.85 696821.00,5346720.85 696820.58,5346720.85 696820.21,5346720.85 696819.86,5346720.85 696819.54,5346720.85 696819.23,5346720.86 696818.93,5346720.87 696818.64,5346720.88 696818.34,5346720.90 696818.04,5346720.92 696817.71,5346720.95 696817.37,5346720.98 696817.00,5346721.02 696816.59,5346721.07 696816.14,5346721.13 696815.64,5346721.19 696815.09,5346721.26"/>
    </edge>
    <edge id=":17_1" function="internal">
        <lane id=":17_1_0" index="0" disallow="bus truck rail_fast" speed="36.11" length="10.95" width="2.43" shape="696825.93,5346719.70 696815.09,5346721.26"/>
    </edge>
    <edge id=":17_2" function="internal">
        <lane id=":17_2_0" index="0" disallow="bus truck rail_fast" speed="25.54" length="9.93" width="2.43" shape="696824.44,5346718.21 696823.78,5346718.55 696823.19,5346718.86 696822.65,5346719.14 696822.16,5346719.38 696821.71,5346719.61 696821.29,5346719.81 696820.89,5346719.98 696820.51,5346720.14 696820.14,5346720.28 696819.77,5346720.41 696819.38,5346720.52 696818.99,5346720.62 696818.56,5346720.72 696818.11,5346720.81 696817.62,5346720.90 696817.08,5346720.99 696816.48,5346721.07 696815.82,5346721.17 696815.09,5346721.26"/>
    </edge>
    <edge id=":18_0" function="internal">
        <lane id=":18_0_0" index="0" disallow="bus truck rail_fast" speed="6.47" length="7.84" width="2.51" shape="696768.57,5346727.05 696767.83,5346727.17 696767.13,5346727.30 696766.47,5346727.43 696765.85,5346727.55 696765.27,5346727.68 696764.73,5346727.81 696764.23,5346727.94 696763.77,5346728.06 696763.35,5346728.19 696762.97,5346728.32 696762.63,5346728.45 696762.33,5346728.57 696762.07,5346728.70 696761.85,5346728.83 696761.66,5346728.96 696761.52,5346729.09 696761.42,5346729.22 696761.36,5346729.35 696761.33,5346729.47"/>
    </edge>
    <edge id=":18_1" function="internal">
        <lane id=":18_1_0" index="0" disallow="bus truck rail_fast" speed="10.89" length="9.08" width="2.49" shape="696768.57,5346727.05 696767.92,5346727.17 696767.33,5346727.30 696766.79,5346727.44 696766.28,5346727.58 696765.82,5346727.72 696765.38,5346727.86 696764.98,5346727.99 696764.59,5346728.10 696764.21,5346728.19 696763.84,5346728.27 696763.47,5346728.31 696763.10,5346728.33 696762.72,5346728.31 696762.32,5346728.25 696761.90,5346728.15 696761.45,5346728.00 696760.97,5346727.80 696760.45,5346727.55 696759.88,5346727.23"/>
    </edge>
    <edge id=":19_0" function="internal">
        <lane id=":19_0_0" index="0" disallow="bus truck rail_fast" speed="36.11" length="6.21" width="2.44" shape="696761.09,5346725.15 696761.56,5346725.15 696761.98,5346725.15 696762.35,5346725.15 696762.70,5346725.16 696763.01,5346725.16 696763.30,5346725.16 696763.57,5346725.15 696763.83,5346725.15 696764.08,5346725.14 696764.32,5346725.13 696764.57,5346725.11 696764.83,5346725.09 696765.09,5346725.06 696765.38,5346725.03 696765.69,5346724.99 696766.03,5346724.94 696766.40,5346724.88 696766.82,5346724.82 696767.28,5346724.74"/>
    </edge>
    <edge id=":19_1" function="internal">
        <lane id=":19_1_0" index="0" disallow="bus truck rail_fast" speed="12.02" length="7.67" width="2.44" shape="696760.32,5346727.50 696760.74,5346727.13 696761.13,5346726.80 696761.49,5346726.52 696761.83,5346726.27 696762.15,5346726.06 696762.45,5346725.87 696762.74,5346725.71 696763.03,5346725.58 696763.32,5346725.47 696763.61,5346725.37 696763.91,5346725.29 696764.23,5346725.22 696764.57,5346725.16 696764.93,5346725.10 696765.32,5346725.04 696765.75,5346724.97 696766.21,5346724.91 696766.72,5346724.83 696767.28,5346724.74"/>
    </edge>
    <edge id=":2_0" function="internal">