<!-- generated on 2020-12-18 16:47:31.569717 by ipykernel_launcher.py v1_2_0+5214-53edc58fcd
-->
<edges>
	<edge from="1" function="normal" id="54454" length="44.57403840879331" numLanes="1" priority="1" speed="36.11111111111111" spreadType="center" to="2">
		<lane allow="moped bicycle pedestrian custom1 trailer evehicle rail_urban ship private truck vip custom2 authority delivery rail_electric taxi tram army hov coach motorcycle passenger bus rail emergency" index="0" length="44.57403840879331" shape="696890.72,5346589.15 696868.425,5346588.85 696846.15,5346588.55" speed="36.11111111111111" width="2.5001799935194047"/>
	</edge>
	<edge from="3" function="normal" id="54455" length="44.549040674395435" numLanes="1" priority="1" speed="36.11111111111111" spreadType="center" to="4">
		<lane allow="moped bicycle pedestrian custom1 trailer evehicle rail_urban ship private truck vip custom2 authority delivery rail_electric taxi tram army hov coach motorcycle passenger bus rail emergency" index="0" length="44.549040674395435" shape="696846.19,5346586.05 696868.46,5346586.35 696890.735,5346586.65" speed="36.11111111111111" width="2.500019999920038"/>
	</edge>
	<edge from="5" function="normal" id="54456" length="99.6795417419232" numLanes="1" priority="1" speed="36.11111111111111" spreadType="center" to="6">
		<lane allow="moped bicycle pedestrian custom1 trailer evehicle rail_urban ship private vip custom2 authority delivery rail_electric taxi tram army hov coach motorcycle passenger rail emergency" index="0" length="99.6795417419232" shape="696775.255,5346833.35 696774.885,5346821.300000001 696774.47,5346810.699999999 696773.84,5346803.2 696772.925,5346796.75 696769.85,5346780.9 696768.17,5346770.5 696766.7050000001,5346761.55 696765.3300000001,5346755.15 696763.355,5346747.85 696759.38,5346735.35" speed="36.11111111111111" width="2.4904015741095944"/>
	</edge>
	<edge from="7" function="normal" id="54457" length="100.34282239268381" numLanes="1" priority="1" speed="36.11111111111111" spreadType="center" to="8">
		<lane allow="moped bicycle pedestrian custom1 trailer evehicle rail_urban ship private vip custom2 authority delivery rail_electric taxi tram army hov coach motorcycle passenger rail emergency" index="0" length="100.34282239268381" shape="696761.77,5346734.6 696765.765,5346747.15 696767.76,5346754.5 696769.155,5346761.0 696770.635,5346770.0 696772.315,5346780.45 696775.405,5346796.35 696776.33,5346802.9 696776.97,5346810.5 696777.39,5346821.15 696777.76,5346833.25" speed="36.11111111111111" width="2.500499950078436"/>
	</edge>
	<edge from="9" function="normal" id="54458" length="25.59677809508627" numLanes="1" priority="1" speed="36.11111111111111" spreadType="center" to="10">
		<lane allow="moped bicycle pedestrian custom1 trailer evehicle rail_urban ship private truck vip custom2 authority delivery rail_electric taxi tram army hov coach motorcycle passenger bus rail emergency" index="0" length="25.59677809508627" shape="696846.5700000001,5346554.65 696843.825,5346567.15 696841.075,5346579.65" speed="36.11111111111111" width="2.500499950078436"/>
	</edge>
	<edge from="11" function="normal" id="54459" length="25.54902975478179" numLanes="1" priority="1" speed="36.11111111111111" spreadType="center" to="12">
		<lane allow="moped bicycle pedestrian custom1 trailer evehicle rail_urban ship private truck vip custom2 authority delivery rail_electric taxi tram army hov coach motorcycle passenger bus rail emergency" index="0" length="25.54902975478179" shape="696838.62,5346579.1 696841.375,5346566.65 696844.12,5346554.15" speed="36.11111111111111" width="2.4907027120327525"/>
	</edge>
	<edge from="13" function="normal" id="54460" length="44.15808601403705" numLanes="1" priority="1" speed="36.11111111111111" spreadType="center" to="14">
		<lane allow="moped bicycle pedestrian custom1 trailer evehicle rail_urban ship private truck vip custom2 authority delivery rail_electric taxi tram army hov coach motorcycle passenger bus rail emergency" index="0" length="44.15808601403705" shape="696900.5,5346536.65 696900.075,5346558.7 696899.655,5346580.8" speed="36.11111111111111" width="2.5019992006616945"/>
	</edge>
	<edge from="15" function="normal" id="54461" length="44.158086014968205" numLanes="1" priority="1" speed="36.11111111111111" spreadType="center" to="16">
		<lane allow="moped bicycle pedestrian custom1 trailer evehicle rail_urban ship private truck vip custom2 authority delivery rail_electric taxi tram army hov coach motorcycle passenger bus rail emergency" index="0" length="44.158086014968205" shape="696897.15,5346580.75 696897.57,5346558.65 696897.995,5346536.6" speed="36.11111111111111" width="2.5019992006244713"/>
	</edge>
	<edge from="17" function="normal" id="54462" length="51.722257894348566" numLanes="1" priority="1" speed="36.11111111111111" spreadType="center" to="18">
		<lane allow="moped bicycle pedestrian custom1 trailer evehicle rail_urban ship private vip custom2 authority delivery rail_electric taxi tram army hov coach motorcycle passenger rail emergency" index="0" length="51.722257894348566" shape="696817.46,5346720.95 696809.925,5346721.95 696787.735,5346724.35 696776.665,5346725.7 696766.1599999999,5346727.45" speed="36.11111111111111" width="2.4347689832538255"/>
	</edge>
	<edge from="19" function="normal" id="54463" length="51.80897277190145" numLanes="1" priority="1" speed="36.11111111111111" spreadType="center" to="20">
		<lane allow="moped bicycle pedestrian custom1 trailer evehicle rail_urban ship private vip custom2 authority delivery rail_electric taxi tram army hov coach motorcycle passenger rail emergency" index="0" length="51.80897277190145" shape="696765.715,5346725.0 696776.27,5346723.25 696787.385,5346721.85 696809.5800000001,5346719.5 696817.095,5346718.45" speed="36.11111111111111" width="2.436472860883811"/>
	</edge>
	<edge from="21" function="normal" id="54464" length="48.189943193647615" numLanes="1" priority="1" speed="36.11111111111111" spreadType="center" to="22">
		<lane allow="moped bicycle pedestrian custom1 trailer evehicle rail_urban ship private truck vip custom2 authority delivery rail_electric taxi tram army hov coach motorcycle passenger bus rail emergency" index="0" length="48.189943193647615" shape="697008.12,5346650.85 696984.03,5346650.25 696959.9450000001,5346649.65" speed="36.11111111111111" width="2.50071989635119"/>
	</edge>
	<edge from="23" function="normal" id="54465" length="48.184944744733855" numLanes="1" priority="1" speed="36.11111111111111" spreadType="center" to="24">
		<lane allow="moped bicycle pedestrian custom1 trailer evehicle rail_urban ship private truck vip custom2 authority delivery rail_electric taxi tram army hov coach motorcycle passenger bus rail emergency" index="0" length="48.184944744733855" shape="696960.01,5346647.15 696984.0900000001,5346647.75 697008.1799999999,5346648.35" speed="36.11111111111111" width="2.5007198963483965"/>
	</edge>
	<edge from="25" function="normal" id="54466" length="51.31559460793309" numLanes="1" priority="1" speed="36.11111111111111" spreadType="center" to="26">
		<lane allow="moped bicycle pedestrian custom1 trailer evehicle rail_urban ship private truck vip custom2 authority delivery rail_electric taxi tram army hov coach motorcycle passenger bus rail emergency" index="0" length="51.31559460793309" shape="696939.815,5346708.85 696940.445,5346683.2 696941.08,5346657.55" speed="36.11111111111111" width="2.5019992006244713"/>
	</edge>
	<edge from="27" function="normal" id="54467" length="51.36545630637119" numLanes="1" priority="1" speed="36.11111111111111" spreadType="center" to="28">
		<lane allow="moped bicycle pedestrian custom1 trailer evehicle rail_urban ship private truck vip custom2 authority delivery rail_electric taxi tram army hov coach motorcycle passenger bus rail emergency" index="0" length="51.36545630637119" shape="696943.585,5346657.6 696942.955,5346683.25 696942.325,5346708.95" speed="36.11111111111111" width="2.5100000000093132"/>
	</edge>
	<edge from="29" function="normal" id="54468" length="21.46198964306774" numLanes="1" priority="1" speed="36.11111111111111" spreadType="center" to="30">
		<lane allow="moped bicycle pedestrian custom1 trailer evehicle rail_urban ship private truck vip custom2 authority delivery rail_electric taxi tram army hov coach motorcycle passenger bus rail emergency" index="0" length="21.46198964306774" shape="696736.23,5346562.699999999 696737.04,5346573.4 696737.86,5346584.1" speed="36.11111111111111" width="2.5079872408117443"/>
	</edge>
	<edge from="31" function="normal" id="54469" length="21.412136507068524" numLanes="1" priority="1" speed="36.11111111111111" spreadType="center" to="32">
		<lane allow="moped bicycle pedestrian custom1 trailer evehicle rail_urban ship private truck vip custom2 authority delivery rail_electric taxi tram army hov coach motorcycle passenger bus rail emergency" index="0" length="21.412136507068524" shape="696735.36,5346584.25 696734.54,5346573.6 696733.73,5346562.9" speed="36.11111111111111" width="2.5019992006244713"/>
	</edge>
	<edge from="33" function="normal" id="54470" length="53.824535762581206" numLanes="1" priority="1" speed="36.11111111111111" spreadType="center" to="34">
		<lane allow="moped bicycle pedestrian custom1 trailer evehicle rail_urban ship private truck vip custom2 authority delivery rail_electric taxi tram army hov coach motorcycle passenger bus rail emergency" index="0" length="53.824535762581206" shape="696873.47,5346709.15 696874.285,5346682.25 696875.095,5346655.35" speed="36.11111111111111" width="2.5019992006616945"/>
	</edge>
	<edge from="35" function="normal" id="54471" length="53.77455873703303" numLanes="1" priority="1" speed="36.11111111111111" spreadType="center" to="36">
		<lane allow="moped bicycle pedestrian custom1 trailer evehicle rail_urban ship private truck vip custom2 authority delivery rail_electric taxi tram army hov coach motorcycle passenger bus rail emergency" index="0" length="53.77455873703303" shape="696877.6,5346655.45 696876.79,5346682.35 696875.975,5346709.2" speed="36.11111111111111" width="2.5019992006244713"/>
	</edge>
	<edge from="37" function="normal" id="54472" length="135.96045963402764" numLanes="1" priority="1" speed="36.11111111111111" spreadType="center" to="38">
		<lane allow="moped bicycle pedestrian custom1 trailer evehicle rail_urban ship private truck vip custom2 authority delivery rail_electric taxi tram army hov coach motorcycle passenger bus rail emergency" index="0" length="135.96045963402764" shape="696862.665,5346488.95 696943.485,5346482.55 696998.135,5346477.45" speed="36.11111111111111" width="2.510557706963023"/>
	</edge>
	<edge from="39" function="normal" id="54473" length="135.976447661228" numLanes="1" priority="1" speed="36.11111111111111" spreadType="center" to="40">
		<lane allow="moped bicycle pedestrian custom1 trailer evehicle rail_urban ship private truck vip custom2 authority delivery rail_electric taxi tram army hov coach motorcycle passenger bus rail emergency" index="0" length="135.976447661228" shape="696998.365,5346479.95 696943.7,5346485.05 696862.875,5346491.4" speed="36.11111111111111" width="2.407509085610386"/>
	</edge>
	<edge from="41" function="normal" id="54474" length="53.93105691472779" numLanes="1" priority="1" speed="36.11111111111111" spreadType="center" to="42">
		<lane allow="moped bicycle pedestrian custom1 trailer evehicle rail_urban ship private truck vip custom2 authority delivery rail_electric taxi tram army hov coach motorcycle passenger bus rail emergency" index="0" length="53.93105691472779" shape="696956.74,5346527.65 696955.825,5346554.6 696954.91,5346581.55" speed="36.11111111111111" width="2.5019992006244713"/>
	</edge>
	<edge from="43" function="normal" id="54475" length="53.93105702240587" numLanes="1" priority="1" speed="36.11111111111111" spreadType="center" to="44">
		<lane allow="moped bicycle pedestrian custom1 trailer evehicle rail_urban ship private truck vip custom2 authority delivery rail_electric taxi tram army hov coach motorcycle passenger bus rail emergency" index="0" length="53.93105702240587" shape="696952.405,5346581.45 696953.32,5346554.55 696954.235,5346527.55" speed="36.11111111111111" width="2.5019992006244713"/>
	</edge>
	<edge from="45" function="normal" id="54476" length="0.30074859996950043" numLanes="1" priority="1" speed="36.11111111111111" spreadType="center" to="46">
		<lane allow="moped bicycle pedestrian custom1 trailer evehicle rail_urban ship private vip custom2 authority delivery rail_electric taxi tram army hov coach motorcycle passenger rail emergency" index="0" length="0.30074859996950043" shape="696856.745,5346495.65 696856.755,5346495.85 696856.765,5346495.95" speed="36.11111111111111" width="2.5119912420174253"/>
	</edge>
	<edge from="47" function="normal" id="54477" length="0.25058206548116346" numLanes="1" priority="1" speed="36.11111111111111" spreadType="center" to="48">
		<lane allow="moped bicycle pedestrian custom1 trailer evehicle rail_urban ship private vip custom2 authority delivery rail_electric taxi tram army hov coach motorcycle passenger rail emergency" index="0" length="0.25058206548116346" shape="696854.26,5346496.05 696854.25,5346495.95 696854.245,5346495.800000001" speed="36.11111111111111" width="2.498019215304023"/>
	</edge>
	<edge from="49" function="normal" id="54478" length="36.37568494406314" numLanes="1" priority="1" speed="36.11111111111111" spreadType="center" to="50">
		<lane allow="moped bicycle pedestrian custom1 trailer evehicle rail_urban ship private vip custom2 authority delivery rail_electric taxi tram army hov coach motorcycle passenger rail emergency" index="0" length="36.37568494406314" shape="696856.615,5346504.25 696855.765,5346510.4 696854.15,5346519.45 696849.715,5346539.95" speed="36.11111111111111" width="2.5004999499643716"/>
	</edge>
	<edge from="51" function="normal" id="54479" length="36.07134991478433" numLanes="1" priority="1" speed="36.11111111111111" spreadType="center" to="52">
		<lane allow="moped bicycle pedestrian custom1 trailer evehicle rail_urban ship private vip custom2 authority delivery rail_electric taxi tram army hov coach motorcycle passenger rail emergency" index="0" length="36.07134991478433" shape="696847.27,5346539.4 696851.6799999999,5346519.0 696853.285,5346510.050000001 696854.12,5346504.0" speed="36.11111111111111" width="2.5079872407374757"/>
	</edge>
	<edge from="53" function="normal" id="54480" length="21.151598057676665" numLanes="1" priority="1" speed="36.11111111111111" spreadType="center" to="54">
		<lane allow="moped bicycle pedestrian custom1 trailer evehicle rail_urban ship private truck vip custom2 authority delivery rail_electric taxi tram army hov coach motorcycle passenger bus rail emergency" index="0" length="21.151598057676665" shape="696926.095,5346616.7 696926.225,5346606.15 696926.355,5346595.55" speed="36.11111111111111" width="2.5100000000093132"/>
	</edge>
	<edge from="55" function="normal" id="54481" length="21.15153792051902" numLanes="1" priority="1" speed="36.11111111111111" spreadType="center" to="56">
		<lane allow="moped bicycle pedestrian custom1 trailer evehicle rail_urban ship private truck vip custom2 authority delivery rail_electric taxi tram army hov coach motorcycle passenger bus rail emergency" index="0" length="21.15153792051902" shape="696928.86,5346595.6 696928.735,5346606.2 696928.605,5346616.75" speed="36.11111111111111" width="2.5"/>
	</edge>
	<edge from="57" function="normal" id="54482" length="95.50532352404971" numLanes="1" priority="1" speed="36.11111111111111" spreadType="center" to="58">
		<lane allow="moped bicycle pedestrian custom1 trailer evehicle rail_urban ship private vip custom2 authority delivery rail_electric taxi tram army hov coach motorcycle passenger rail emergency" index="0" length="95.50532352404971" shape="696743.05,5346705.15 696739.53,5346705.25 696730.025,5346706.15 696716.5549999999,5346707.8 696700.645,5346710.2 696668.4450000001,5346715.7 696648.6000000001,5346718.95" speed="36.11111111111111" width="2.42835335192074"/>
	</edge>
	<edge from="59" function="normal" id="54483" length="95.85572622592389" numLanes="1" priority="1" speed="36.11111111111111" spreadType="center" to="60">
		<lane allow="moped bicycle pedestrian custom1 trailer evehicle rail_urban ship private vip custom2 authority delivery rail_electric taxi tram army hov coach motorcycle passenger rail emergency" index="0" length="95.85572622592389" shape="696648.21,5346716.45 696668.085,5346713.25 696700.3500000001,5346707.75 696716.3200000001,5346705.35 696729.845,5346703.65 696739.42,5346702.75 696743.015,5346702.65" speed="36.11111111111111" width="2.50007999872019"/>
	</edge>
	<edge from="61" function="normal" id="54484" length="116.76079473466268" numLanes="1" priority="1" speed="36.11111111111111" spreadType="center" to="62">
		<lane allow="moped bicycle pedestrian custom1 trailer evehicle rail_urban ship private vip custom2 authority delivery rail_electric taxi tram army hov coach motorcycle passenger rail emergency" index="0" length="116.76079473466268" shape="696838.345,5346594.35 696836.08,5346609.3 696833.835,5346624.75 696832.11,5346638.699999999 696830.89,5346651.699999999 696829.05,5346678.85 696827.23,5346710.5" speed="36.11111111111111" width="2.5019992006616945"/>
	</edge>
	<edge from="63" function="normal" id="54485" length="117.01241472303636" numLanes="1" priority="1" speed="36.11111111111111" spreadType="center" to="64">
		<lane allow="moped bicycle pedestrian custom1 trailer evehicle rail_urban ship private vip custom2 authority delivery rail_electric taxi tram army hov coach motorcycle passenger rail emergency" index="0" length="117.01241472303636" shape="696824.73,5346710.35 696826.55,5346678.699999999 696828.39,5346651.5 696829.615,5346638.449999999 696831.345,5346624.4 696833.6,5346608.949999999 696835.87,5346593.949999999" speed="36.11111111111111" width="2.4980792621123644"/>
	</edge>
	<edge from="65" function="normal" id="54486" length="102.53837354854485" numLanes="1" priority="1" speed="36.11111111111111" spreadType="center" to="66">
		<lane allow="moped bicycle pedestrian custom1 trailer evehicle rail_urban ship private truck vip custom2 authority delivery rail_electric taxi tram army hov coach motorcycle passenger bus rail emergency" index="0" length="102.53837354854485" shape="696826.57,5346726.5 696825.165,5346777.75 696823.765,5346829.0" speed="36.11111111111111" width="2.5"/>
	</edge>
	<edge from="67" function="normal" id="54487" length="102.53851036322716" numLanes="1" priority="1" speed="36.11111111111111" spreadType="center" to="68">
		<lane allow="moped bicycle pedestrian custom1 trailer evehicle rail_urban ship private truck vip custom2 authority delivery rail_electric taxi tram army hov coach motorcycle passenger bus rail emergency" index="0" length="102.53851036322716" shape="696821.255,5346828.95 696822.66,5346777.65 696824.065,5346726.45" speed="36.11111111111111" width="2.5019992006616945"/>
	</edge>
	<edge from="69" function="normal" id="54488" length="207.3811744466849" numLanes="1" priority="1" speed="36.11111111111111" spreadType="center" to="70">
		<lane allow="moped bicycle pedestrian custom1 trailer evehicle rail_urban ship private vip custom2 authority delivery rail_electric taxi tram army hov coach motorcycle passenger rail emergency" index="0" length="207.3811744466849" shape="696641.8999999999,5346513.05 696683.1499999999,5346506.45 696702.575,5346503.6 696723.045,5346501.05 696747.57,5346498.45 696777.64,5346495.65 696847.9,5346490.05" speed="36.11111111111111" width="2.4199380151731695"/>
	</edge>
	<edge from="71" function="normal" id="54489" length="207.16648500523232" numLanes="1" priority="1" speed="36.11111111111111" spreadType="center" to="72">
		<lane allow="moped bicycle pedestrian custom1 trailer evehicle rail_urban ship private vip custom2 authority delivery rail_electric taxi tram army hov coach motorcycle passenger rail emergency" index="0" length="207.16648500523232" shape="696848.085,5346492.55 696777.88,5346498.15 696747.84,5346500.95 696723.3500000001,5346503.55 696702.905,5346506.05 696683.5149999999,5346508.9 696642.2949999999,5346515.5" speed="36.11111111111111" width="2.4283533510002915"/>
	</edge>
	<edge from="73" function="normal" id="54490" length="147.4551589710579" numLanes="1" priority="1" speed="36.11111111111111" spreadType="center" to="74">
		<lane allow="moped bicycle pedestrian custom1 trailer evehicle rail_urban ship private vip custom2 authority delivery rail_electric taxi tram army hov coach motorcycle passenger rail emergency" index="0" length="147.4551589710579" shape="696771.88,5346635.55 696762.79,5346636.35 696749.14,5346637.4 696739.015,5346638.05 696733.44,5346638.05 696728.3799999999,5346637.75 696724.3700000001,5346637.15 696720.44,5346636.15 696717.0900000001,5346634.949999999 696713.875,5346633.5 696711.235,5346632.0 696690.12,5346617.1 696641.735,5346582.0" speed="36.11111111111111" width="2.4053274199765338"/>
	</edge>
	<edge from="75" function="normal" id="54491" length="145.64330805141552" numLanes="1" priority="1" speed="36.11111111111111" spreadType="center" to="76">
		<lane allow="moped bicycle pedestrian custom1 trailer evehicle rail_urban ship private vip custom2 authority delivery rail_electric taxi tram army hov coach motorcycle passenger rail emergency" index="0" length="145.64330805141552" shape="696643.205,5346579.95 696691.29,5346614.85 696712.225,5346629.65 696714.72,5346631.1 696717.8,5346632.55 696721.005,5346633.7 696724.795,5346634.65 696728.6599999999,5346635.25 696733.5900000001,5346635.55 696739.0549999999,5346635.55 696749.0700000001,5346634.9 696762.625,5346633.85 696771.63,5346633.05" speed="36.11111111111111" width="2.501619475458674"/>
	</edge>
	<edge from="77" function="normal" id="54492" length="25.851257218381015" numLanes="1" priority="1" speed="36.11111111111111" spreadType="center" to="78">
		<lane allow="moped bicycle pedestrian custom1 trailer evehicle rail_urban ship private truck vip custom2 authority delivery rail_electric taxi tram army hov coach motorcycle passenger bus rail emergency" index="0" length="25.851257218381015" shape="696986.55,5346589.7 696973.625,5346589.85 696960.7,5346589.95" speed="36.11111111111111" width="2.50007999872019"/>
	</edge>
	<edge from="79" function="normal" id="54493" length="25.831257631482544" numLanes="1" priority="1" speed="36.11111111111111" spreadType="center" to="80">
		<lane allow="moped bicycle pedestrian custom1 trailer evehicle rail_urban ship private truck vip custom2 authority delivery rail_electric taxi tram army hov coach motorcycle passenger bus rail emergency" index="0" length="25.831257631482544" shape="696960.7,5346587.45 696973.6,5346587.35 696986.53,5346587.2" speed="36.11111111111111" width="2.4000833322592956"/>
	</edge>
	<edge from="81" function="normal" id="54494" length="71.61065729499683" numLanes="1" priority="1" speed="36.11111111111111" spreadType="center" to="82">
		<lane allow="moped bicycle pedestrian custom1 trailer evehicle rail_urban ship private vip custom2 authority delivery rail_electric taxi tram army hov coach motorcycle passenger rail emergency" index="0" length="71.61065729499683" shape="696758.3899999999,5346701.95 696760.895,5346701.75 696763.855,5346701.3 696766.245,5346700.65 696768.06,5346699.85 696769.31,5346699.050000001 696770.315,5346697.9 696771.105,5346696.65 696772.3200000001,5346694.5 696773.46,5346692.85 696774.7150000001,5346691.35 696775.26,5346689.9 696775.73,5346688.5 696776.9,5346684.2 696777.76,5346679.8 696778.385,5346674.9 696778.735,5346669.4 696778.805,5346662.95 696778.465,5346650.55 696778.315,5346641.1" speed="36.11111111111111" width="2.4522642598698208"/>
	</edge>
	<edge from="83" function="normal" id="54495" length="75.34311023267821" numLanes="1" priority="1" speed="36.11111111111111" spreadType="center" to="84">
		<lane allow="moped bicycle pedestrian custom1 trailer evehicle rail_urban ship private vip custom2 authority delivery rail_electric taxi tram army hov coach motorcycle passenger rail emergency" index="0" length="75.34311023267821" shape="696780.825,5346641.1 696780.985,5346650.75 696781.315,5346663.550000001 696781.21,5346670.2 696780.8,5346675.95 696780.0900000001,5346681.05 696779.13,5346685.6 696777.83,5346690.1 696777.22,5346691.699999999 696776.46,5346693.15 696775.135,5346694.75 696774.065,5346696.5 696772.755,5346698.75 696771.745,5346700.05 696770.475,5346701.25 696768.975,5346702.15 696766.9450000001,5346703.05 696764.325,5346703.75 696761.1599999999,5346704.25 696758.54,5346704.45" speed="36.11111111111111" width="2.505114767832091"/>
	</edge>
	<edge from="85" function="normal" id="54496" length="38.21561232277636" numLanes="1" priority="1" speed="36.11111111111111" spreadType="center" to="86">
		<lane allow="moped bicycle pedestrian custom1 trailer evehicle rail_urban ship private truck vip custom2 authority delivery rail_electric taxi tram army hov coach motorcycle passenger bus rail emergency" index="0" length="38.21561232277636" shape="696838.595,5346547.85 696819.565,5346549.6 696800.54,5346551.35" speed="36.11111111111111" width="2.4109956444097476"/>
	</edge>
	<edge from="87" function="normal" id="54497" length="38.23101926976473" numLanes="1" priority="1" speed="36.11111111111111" spreadType="center" to="88">
		<lane allow="moped bicycle pedestrian custom1 trailer evehicle rail_urban ship private truck vip custom2 authority delivery rail_electric taxi tram army hov coach motorcycle passenger bus rail emergency" index="0" length="38.23101926976473" shape="696800.29,5346548.85 696819.34,5346547.15 696838.365,5346545.4" speed="36.11111111111111" width="2.410995644398642"/>
	</edge>
	<edge from="89" function="normal" id="54498" length="69.22876932456862" numLanes="1" priority="1" speed="36.11111111111111" spreadType="center" to="90">
		<lane allow="moped bicycle pedestrian custom1 trailer evehicle rail_urban ship private truck vip custom2 authority delivery rail_electric taxi tram army hov coach motorcycle passenger bus rail emergency" index="0" length="69.22876932456862" shape="696779.71,5346626.6 696785.505,5346592.5 696791.31,5346558.35" speed="36.11111111111111" width="2.498079262227937"/>
	</edge>
	<edge from="91" function="normal" id="54499" length="69.27806360727081" numLanes="1" priority="1" speed="36.11111111111111" spreadType="center" to="92">
		<lane allow="moped bicycle pedestrian custom1 trailer evehicle rail_urban ship private truck vip custom2 authority delivery rail_electric taxi tram army hov coach motorcycle passenger bus rail emergency" index="0" length="69.27806360727081" shape="696793.78,5346558.75 696787.975,5346592.9 696782.1799999999,5346627.05" speed="36.11111111111111" width="2.502179050231007"/>
	</edge>
	<edge from="93" function="normal" id="54500" length="11.356102223184049" numLanes="1" priority="1" speed="36.11111111111111" spreadType="center" to="94">
		<lane allow="moped bicycle pedestrian custom1 trailer evehicle rail_urban ship private truck vip custom2 authority delivery rail_electric taxi tram army hov coach motorcycle passenger bus rail emergency" index="0" length="11.356102223184049" shape="696946.125,5346589.9 696940.435,5346589.85 696934.77,5346589.75" speed="36.11111111111111" width="2.50007999872019"/>
	</edge>
	<edge from="95" function="normal" id="54501" length="11.35110008826644" numLanes="1" priority="1" speed="36.11111111111111" spreadType="center" to="96">
		<lane allow="moped bicycle pedestrian custom1 trailer evehicle rail_urban ship private truck vip custom2 authority delivery rail_electric taxi tram army hov coach motorcycle passenger bus rail emergency" index="0" length="11.35110008826644" shape="696934.78,5346587.25 696940.465,5346587.35 696946.13,5346587.4" speed="36.11111111111111" width="2.4000833313280054"/>
	</edge>
	<edge from="97" function="normal" id="54502" length="44.04987339098682" numLanes="1" priority="1" speed="36.11111111111111" spreadType="center" to="98">
		<lane allow="moped bicycle pedestrian custom1 trailer evehicle rail_urban ship private truck vip custom2 authority delivery rail_electric taxi tram army hov coach motorcycle passenger bus rail emergency" index="0" length="44.04987339098682" shape="696785.44,5346552.5 696762.715,5346554.15 696741.535,5346556.05" speed="36.11111111111111" width="2.510557706963023"/>
	</edge>
	<edge from="99" function="normal" id="54503" length="44.149536064571905" numLanes="1" priority="1" speed="36.11111111111111" spreadType="center" to="100">
		<lane allow="moped bicycle pedestrian custom1 trailer evehicle rail_urban ship private truck vip custom2 authority delivery rail_electric taxi tram army hov coach motorcycle passenger bus rail emergency" index="0" length="44.149536064571905" shape="696741.275,5346553.55 696762.51,5346551.65 696785.28,5346550.0" speed="36.11111111111111" width="2.406740534791106"/>
	</edge>
	<edge from="101" function="normal" id="54504" length="59.215337751382336" numLanes="1" priority="1" speed="36.11111111111111" spreadType="center" to="102">
		<lane allow="moped bicycle pedestrian custom1 trailer evehicle rail_urban ship private truck vip custom2 authority delivery rail_electric taxi tram army hov coach motorcycle passenger bus rail emergency" index="0" length="59.215337751382336" shape="697007.385,5346717.45 696977.775,5346717.55 696948.1699999999,5346717.65" speed="36.11111111111111" width="2.500019999920038"/>
	</edge>
	<edge from="103" function="normal" id="54505" length="59.19033789398178" numLanes="1" priority="1" speed="36.11111111111111" spreadType="center" to="104">