<routes>
	<vehicle depart="0.1" departLane="0" departPos="20.539206397280086" departSpeed="1.4455998" id="31" type="passenger">
		<route edges=":103_5 3508"/>
	</vehicle>
	<vehicle depart="0.1" departLane="0" departPos="19.083898583684192" departSpeed="13.134477" id="32" type="passenger">
		<route edges="3512 3553"/>
	</vehicle>
	<vehicle depart="0.1" departLane="0" departPos="38.39623229259115" departSpeed="14.737018" id="316" type="passenger">
		<route edges=":103_7 3512 3553"/>
	</vehicle>
	<vehicle depart="0.1" departLane="0" departPos="26.804822038764666" departSpeed="9.9174197" id="317" type="passenger">
		<route edges=":103_7 3512 3553"/>
	</vehicle>
	<vehicle depart="0.1" departLane="0" departPos="24.72257423139424" departSpeed="0.023544208" id="352" type="passenger">
		<route edges=":103_2 3440"/>
	</vehicle>
</routes>
