<routes>
	<vehicle depart="0.1" departLane="0" departPos="20.032004330347775" departSpeed="5.5942899" id="1" type="passenger">
		<route edges="50201 50213 50197"/>
	</vehicle>
	<vehicle depart="0.1" departLane="0" departPos="112.5238371335906" departSpeed="0.88604788" id="2" type="passenger">
		<route edges="50195 50211 50199"/>
	</vehicle>
	<vehicle depart="0.1" departLane="0" departPos="137.73802740501517" departSpeed="2.409401" id="4" type="passenger">
		<route edges="50205 50207 50197"/>
	</vehicle>
	<vehicle depart="0.1" departLane="0" departPos="145.73805973075258" departSpeed="5.2469701" id="5" type="passenger">
		<route edges="50205 50217 50199"/>
	</vehicle>
	<vehicle depart="0.1" departLane="0" departPos="12.029682145098992" departSpeed="3.2128615" id="7" type="passenger">
		<route edges="50201 50213 50197"/>
	</vehicle>
</routes>
