<routes>
	<vehicle depart="0.1" departLane="0" departPos="56.06972199930746" departSpeed="0.036215488" id="312" type="bicycle">
		<route edges="79896 78051"/>
	</vehicle>
	<vehicle depart="0.1" departLane="0" departPos="7.479374583339146" departSpeed="1.860688" id="32" type="passenger">
		<route edges=":68_11 78051"/>
	</vehicle>
	<vehicle depart="0.1" departLane="0" departPos="50.713017610609626" departSpeed="1.7536231" id="37" type="passenger">
		<route edges="79896 78051"/>
	</vehicle>
	<vehicle depart="0.1" departLane="0" departPos="29.81944218727776" departSpeed="0.69888902" id="38" type="passenger">
		<route edges=":68_11 78051"/>
	</vehicle>
	<vehicle depart="0.1" departLane="0" departPos="17.428635884697023" departSpeed="1.0954813" id="318" type="passenger">
		<route edges=":68_11 78051"/>
	</vehicle>
	<vehicle depart="0.1" departLane="0" departPos="12.841825591938933" departSpeed="0.030324315" id="319" type="passenger">
		<route edges=":73_13 78309"/>
	</vehicle>
	<vehicle depart="0.1" departLane="0" departPos="2.5" departSpeed="1.9969559" id="323" type="passenger">
		<route edges="78051 78305"/>
	</vehicle>
	<vehicle depart="0.1" departLane="0" departPos="10.214650955622547" departSpeed="7.8686014" id="326" type="passenger">
		<route edges=":73_9 78120 78667"/>
	</vehicle>
	<vehicle depart="0.1" departLane="0" departPos="2.5" departSpeed="0.0" id="344" type="passenger">
		<route edges=":68_7 78051"/>
	</vehicle>
	<vehicle depart="0.1" departLane="0" departPos="64.40115887715717" departSpeed="2.769934" id="35" type="motorcycle">
		<route edges="79896 78244"/>
	</vehicle>
</routes>
