<!-- generated on Tue Feb  9 22:18:53 2021 by Eclipse SUMO netconvert Version 1.8.0
<configuration xmlns:xsi="http://www.w3.org/2001/XMLSchema-instance" xsi:noNamespaceSchemaLocation="http://sumo.dlr.de/xsd/netconvertConfiguration.xsd">

    <input>
        <node-files value="./converted_scenarios/scenario-factory/ITA_Foggia-6_1_I-1-1/ITA_Foggia-6_1_I-1-1.nod.xml"/>
        <edge-files value="./converted_scenarios/scenario-factory/ITA_Foggia-6_1_I-1-1/ITA_Foggia-6_1_I-1-1.edg.xml"/>
        <connection-files value="./converted_scenarios/scenario-factory/ITA_Foggia-6_1_I-1-1/ITA_Foggia-6_1_I-1-1.con.xml"/>
        <tllogic-files value="./converted_scenarios/scenario-factory/ITA_Foggia-6_1_I-1-1/ITA_Foggia-6_1_I-1-1.tll.xml"/>
        <type-files value="/home/zen/commonroad-interactive-benchmarks/install/commonroad-map-tool/crmapconverter/sumo_map/templates/DEU.typ.xml"/>
    </input>

    <output>
        <output-file value="./converted_scenarios/scenario-factory/ITA_Foggia-6_1_I-1-1/ITA_Foggia-6_1_I-1-1.net.xml"/>
    </output>

    <processing>
        <geometry.remove.keep-edges.explicit value="true"/>
        <geometry.avoid-overlap value="true"/>
        <offset.disable-normalization value="true"/>
    </processing>

    <junctions>
        <no-turnarounds value="true"/>
        <junctions.internal-link-detail value="20"/>
    </junctions>

    <report>
        <aggregate-warnings value="5"/>
    </report>

    <random_number>
        <seed value="1234"/>
    </random_number>

</configuration>
--><net xmlns:xsi="http://www.w3.org/2001/XMLSchema-instance" version="1.6" junctionCornerDetail="5" junctionLinkDetail="20" limitTurnSpeed="5.50" xsi:noNamespaceSchemaLocation="http://sumo.dlr.de/xsd/net_file.xsd">

    <location netOffset="0.00,0.00" convBoundary="-165.10,-968.48,106.15,-772.80" origBoundary="-165.10,-968.48,106.15,-772.80" projParameter="!"/>

    <type id="highway.bridleway" priority="1" speed="2.78" allow="pedestrian" oneway="1" width="2.00"/>
    <type id="highway.bus_guideway" priority="1" speed="27.78" allow="bus" oneway="1"/>
    <type id="highway.cycleway" priority="1" speed="8.33" allow="bicycle" oneway="0" width="1.00"/>
    <type id="highway.footway" priority="1" speed="2.78" allow="pedestrian" oneway="1" width="2.00"/>
    <type id="highway.ford" priority="1" speed="2.78" allow="army" oneway="0"/>
    <type id="highway.living_street" priority="2" speed="2.78" disallow="tram rail_urban rail rail_electric rail_fast ship" oneway="0"/>
    <type id="highway.motorway" priority="14" speed="39.44" allow="private emergency authority army vip passenger hov taxi bus coach delivery truck trailer motorcycle evehicle custom1 custom2" oneway="1"/>
    <type id="highway.motorway_link" priority="9" speed="22.22" allow="private emergency authority army vip passenger hov taxi bus coach delivery truck trailer motorcycle evehicle custom1 custom2" oneway="1"/>
    <type id="highway.path" priority="1" speed="2.78" allow="pedestrian bicycle" oneway="0" width="2.00"/>
    <type id="highway.pedestrian" priority="1" speed="2.78" allow="pedestrian" oneway="1" width="2.00"/>
    <type id="highway.primary" priority="12" speed="27.78" disallow="pedestrian tram rail_urban rail rail_electric rail_fast ship" oneway="0"/>
    <type id="highway.primary_link" priority="7" speed="22.22" disallow="pedestrian tram rail_urban rail rail_electric rail_fast ship" oneway="0"/>
    <type id="highway.raceway" priority="15" speed="83.33" allow="vip" oneway="0"/>
    <type id="highway.residential" priority="3" speed="13.89" disallow="pedestrian tram rail_urban rail rail_electric rail_fast ship" oneway="0"/>
    <type id="highway.secondary" priority="11" speed="27.78" disallow="pedestrian tram rail_urban rail rail_electric rail_fast ship" oneway="0"/>
    <type id="highway.secondary_link" priority="6" speed="22.22" disallow="pedestrian tram rail_urban rail rail_electric rail_fast ship" oneway="0"/>
    <type id="highway.service" priority="1" speed="5.56" allow="pedestrian delivery bicycle" oneway="0"/>
    <type id="highway.stairs" priority="1" speed="1.39" allow="pedestrian" oneway="1" width="2.00"/>
    <type id="highway.step" priority="1" speed="1.39" allow="pedestrian" oneway="1" width="2.00"/>
    <type id="highway.steps" priority="1" speed="1.39" allow="pedestrian" oneway="1" width="2.00"/>
    <type id="highway.tertiary" priority="10" speed="22.22" disallow="pedestrian tram rail_urban rail rail_electric rail_fast ship" oneway="0"/>
    <type id="highway.tertiary_link" priority="5" speed="22.22" disallow="pedestrian tram rail_urban rail rail_electric rail_fast ship" oneway="0"/>
    <type id="highway.track" priority="1" speed="5.56" allow="pedestrian motorcycle moped bicycle" oneway="0"/>
    <type id="highway.trunk" priority="13" speed="27.78" disallow="pedestrian bicycle tram rail_urban rail rail_electric rail_fast ship" oneway="0"/>
    <type id="highway.trunk_link" priority="8" speed="22.22" disallow="pedestrian bicycle tram rail_urban rail rail_electric rail_fast ship" oneway="0"/>
    <type id="highway.unclassified" priority="4" speed="13.89" disallow="pedestrian tram rail_urban rail rail_electric rail_fast ship" oneway="0"/>
    <type id="highway.unsurfaced" priority="1" speed="8.33" disallow="tram rail_urban rail rail_electric rail_fast ship" oneway="0"/>
    <type id="railway.highspeed" priority="21" speed="69.44" allow="rail_fast" oneway="1"/>
    <type id="railway.light_rail" priority="19" speed="27.78" allow="rail_urban" oneway="1"/>
    <type id="railway.preserved" priority="16" speed="27.78" allow="rail" oneway="1"/>
    <type id="railway.rail" priority="20" speed="44.44" allow="rail" oneway="1"/>
    <type id="railway.subway" priority="18" speed="27.78" allow="rail_urban" oneway="1"/>
    <type id="railway.tram" priority="17" speed="13.89" allow="tram" oneway="1"/>

    <edge id=":68_0" function="internal">
        <lane id=":68_0_0" index="0" disallow="pedestrian tram rail_urban rail rail_electric rail_fast ship" speed="11.09" length="28.47" width="3.50" shape="-94.12,-878.97 -96.76,-880.92 -98.65,-882.03 -100.65,-882.94 -102.74,-883.57 -103.82,-883.78 -104.91,-883.89 -106.00,-883.90 -107.09,-883.82 -108.17,-883.65 -109.24,-883.37 -110.27,-883.01 -112.24,-882.05 -114.06,-880.84 -115.74,-879.43 -117.28,-877.87 -118.70,-876.21"/>
    </edge>
    <edge id=":68_1" function="internal">
        <lane id=":68_1_0" index="0" disallow="pedestrian tram rail_urban rail rail_electric rail_fast ship" speed="36.11" length="26.94" width="3.50" shape="-94.14,-878.98 -114.98,-896.06"/>
    </edge>
    <edge id=":68_2" function="internal">
        <lane id=":68_2_0" index="0" disallow="pedestrian tram rail_urban rail rail_electric rail_fast ship" speed="12.84" length="33.54" width="3.50" shape="-94.12,-878.97 -95.06,-879.78 -97.63,-882.32 -99.20,-884.25 -100.56,-886.34 -101.67,-888.61 -102.47,-891.02 -102.93,-893.53 -103.02,-896.07 -102.78,-898.58 -102.24,-901.02 -101.46,-903.36 -100.47,-905.62 -98.74,-908.77"/>
    </edge>
    <edge id=":68_3" function="internal">
        <lane id=":68_3_0" index="0" disallow="pedestrian tram rail_urban rail rail_electric rail_fast ship" speed="11.87" length="28.53" width="3.50" shape="-95.72,-907.00 -97.28,-904.18 -98.13,-902.24 -98.80,-900.24 -99.26,-898.18 -99.46,-896.08 -99.39,-893.97 -99.02,-891.89 -98.35,-889.89 -97.43,-887.99 -96.28,-886.22 -94.95,-884.58 -92.70,-882.36 -91.91,-881.69"/>
    </edge>
    <edge id=":68_4" function="internal">
        <lane id=":68_4_0" index="0" disallow="pedestrian tram rail_urban rail rail_electric rail_fast ship" speed="36.11" length="38.43" width="3.50" shape="-95.72,-906.99 -99.19,-901.77 -105.31,-893.39 -115.47,-880.27 -118.70,-876.21"/>
    </edge>
    <edge id=":68_5" function="internal">
        <lane id=":68_5_0" index="0" disallow="pedestrian tram rail_urban rail rail_electric rail_fast ship" speed="10.66" length="23.98" width="3.50" shape="-95.75,-906.94 -96.70,-905.40 -97.65,-903.96 -98.61,-902.64 -99.57,-901.43 -100.54,-900.32 -101.51,-899.33 -102.49,-898.44 -103.47,-897.67 -104.46,-897.00 -105.45,-896.45 -106.45,-896.00 -107.45,-895.66 -108.46,-895.44 -109.47,-895.32 -110.49,-895.31 -111.51,-895.42 -112.54,-895.63 -113.58,-895.95 -114.62,-896.38"/>
    </edge>
    <edge id=":68_6" function="internal">
        <lane id=":68_6_0" index="0" disallow="pedestrian tram rail_urban rail rail_electric rail_fast ship" speed="8.48" length="17.77" width="3.50" shape="-112.33,-899.30 -111.72,-899.13 -110.66,-899.00 -109.59,-899.06 -108.54,-899.27 -107.53,-899.63 -106.57,-900.11 -105.66,-900.69 -104.81,-901.34 -103.23,-902.79 -101.81,-904.40 -99.89,-906.98 -98.74,-908.77"/>
    </edge>
    <edge id=":68_7" function="internal">
        <lane id=":68_7_0" index="0" disallow="pedestrian tram rail_urban rail rail_electric rail_fast ship" speed="36.11" length="26.95" width="3.50" shape="-112.76,-898.77 -103.71,-891.35 -91.91,-881.69"/>
    </edge>
    <edge id=":68_8" function="internal">
        <lane id=":68_8_0" index="0" disallow="pedestrian tram rail_urban rail rail_electric rail_fast ship" speed="10.43" length="24.56" width="3.50" shape="-113.06,-898.40 -112.81,-898.07 -112.16,-896.90 -111.67,-895.65 -111.34,-894.35 -111.18,-893.02 -111.19,-891.67 -111.33,-890.34 -111.59,-889.02 -112.41,-886.47 -113.51,-884.02 -115.54,-880.55 -117.87,-877.26 -118.70,-876.21"/>
    </edge>
    <edge id=":68_9" function="internal">
        <lane id=":68_9_0" index="0" disallow="pedestrian tram rail_urban rail rail_electric rail_fast ship" speed="9.34" length="20.52" width="3.50" shape="-121.43,-878.40 -118.10,-898.65"/>
    </edge>
    <edge id=":68_10" function="internal">
        <lane id=":68_10_0" index="0" disallow="pedestrian tram rail_urban rail rail_electric rail_fast ship" speed="36.11" length="37.94" width="3.50" shape="-121.44,-878.39 -118.24,-882.42 -108.15,-895.44 -102.10,-903.71 -98.74,-908.77"/>
    </edge>
    <edge id=":68_11" function="internal">
        <lane id=":68_11_0" index="0" disallow="pedestrian tram rail_urban rail rail_electric rail_fast ship" speed="12.10" length="34.10" width="3.50" shape="-121.44,-878.39 -119.79,-880.32 -117.99,-882.13 -116.01,-883.80 -113.82,-885.25 -111.45,-886.40 -110.15,-886.86 -108.84,-887.19 -107.49,-887.41 -106.13,-887.51 -104.77,-887.49 -103.43,-887.35 -102.08,-887.09 -99.57,-886.32 -97.19,-885.24 -94.95,-883.93 -91.91,-881.69"/>
    </edge>
    <edge id=":70_0" function="internal">
        <lane id=":70_0_0" index="0" disallow="pedestrian tram rail_urban rail rail_electric rail_fast ship" speed="20.15" length="26.45" width="3.50" shape="-66.88,-842.23 -70.22,-841.16 -73.11,-839.96 -75.90,-838.53 -78.56,-836.89 -81.08,-835.04 -83.45,-833.01 -85.68,-830.81 -88.41,-827.65"/>
    </edge>
    <edge id=":70_1" function="internal">
        <lane id=":70_1_0" index="0" disallow="pedestrian tram rail_urban rail rail_electric rail_fast ship" speed="20.04" length="26.46" width="3.50" shape="-66.88,-842.22 -70.36,-841.12 -73.22,-839.93 -75.97,-838.51 -78.61,-836.88 -81.11,-835.04 -83.47,-833.01 -85.67,-830.82 -88.41,-827.65"/>
    </edge>
    <edge id=":70_2" function="internal">
        <lane id=":70_2_0" index="0" disallow="pedestrian tram rail_urban rail rail_electric rail_fast ship" speed="36.11" length="26.06" width="3.50" shape="-72.43,-848.24 -75.46,-844.25 -88.41,-827.65"/>
    </edge>
    <edge id=":70_3" function="internal">
        <lane id=":70_3_0" index="0" disallow="pedestrian tram rail_urban rail rail_electric rail_fast ship" speed="36.11" length="27.42" width="3.50" shape="-71.62,-849.33 -75.18,-844.62 -88.41,-827.65"/>
    </edge>
    <edge id=":70_4" function="internal">
        <lane id=":70_4_0" index="0" disallow="pedestrian tram rail_urban rail rail_electric rail_fast ship" speed="36.11" length="27.61" width="3.50" shape="-91.15,-829.82 -78.24,-846.38 -74.24,-851.64"/>
    </edge>
    <edge id=":70_5" function="internal">
        <lane id=":70_5_0" index="0" disallow="pedestrian tram rail_urban rail rail_electric rail_fast ship" speed="36.11" length="27.33" width="3.50" shape="-91.15,-829.82 -77.96,-846.75 -74.41,-851.42"/>
    </edge>
    <edge id=":70_6" function="internal">
        <lane id=":70_6_0" index="0" disallow="pedestrian tram rail_urban rail rail_electric rail_fast ship" speed="20.92" length="28.65" width="3.50" shape="-91.15,-829.82 -88.21,-833.23 -85.81,-835.60 -83.26,-837.80 -80.54,-839.80 -77.68,-841.57 -74.68,-843.11 -71.56,-844.40 -67.83,-845.59"/>
    </edge>
    <edge id=":70_7" function="internal">
        <lane id=":70_7_0" index="0" disallow="pedestrian tram rail_urban rail rail_electric rail_fast ship" speed="20.96" length="28.72" width="3.50" shape="-91.15,-829.82 -88.21,-833.22 -85.80,-835.61 -83.23,-837.81 -80.49,-839.81 -77.59,-841.60 -74.57,-843.14 -71.43,-844.44 -67.76,-845.62"/>
    </edge>
    <edge id=":71_0" function="internal">
        <lane id=":71_0_0" index="0" disallow="pedestrian tram rail_urban rail rail_electric rail_fast ship" speed="36.11" length="29.44" width="3.50" shape="-38.73,-849.80 -60.08,-844.12 -67.16,-842.15"/>
    </edge>
    <edge id=":71_1" function="internal">
        <lane id=":71_1_0" index="0" disallow="pedestrian tram rail_urban rail rail_electric rail_fast ship" speed="36.11" length="28.94" width="3.50" shape="-38.73,-849.80 -59.96,-844.15 -66.68,-842.28"/>
    </edge>
    <edge id=":71_2" function="internal">
        <lane id=":71_2_0" index="0" disallow="pedestrian tram rail_urban rail rail_electric rail_fast ship" speed="14.42" length="24.66" width="3.49" shape="-38.73,-849.80 -43.32,-848.79 -46.80,-848.31 -50.30,-848.15 -52.63,-848.27 -54.94,-848.63 -57.19,-849.28 -59.31,-850.27 -60.29,-850.90 -62.19,-852.41"/>
    </edge>
    <edge id=":71_3" function="internal">
        <lane id=":71_3_0" index="0" disallow="pedestrian tram rail_urban rail rail_electric rail_fast ship" speed="14.05" length="24.67" width="3.49" shape="-38.73,-849.80 -43.32,-848.79 -46.80,-848.31 -50.30,-848.15 -52.63,-848.27 -54.94,-848.63 -57.19,-849.28 -59.31,-850.27 -60.29,-850.90 -62.17,-852.45"/>
    </edge>
    <edge id=":71_4" function="internal">
        <lane id=":71_4_0" index="0" disallow="pedestrian tram rail_urban rail rail_electric rail_fast ship" speed="13.14" length="21.30" width="3.50" shape="-59.90,-855.09 -58.22,-853.72 -57.48,-853.25 -55.74,-852.47 -53.87,-851.98 -51.92,-851.71 -49.92,-851.64 -46.82,-851.82 -43.74,-852.27 -39.61,-853.19"/>
    </edge>
    <edge id=":71_5" function="internal">
        <lane id=":71_5_0" index="0" disallow="pedestrian tram rail_urban rail rail_electric rail_fast ship" speed="8.09" length="20.99" width="3.50" shape="-59.90,-855.09 -57.64,-853.01 -56.60,-851.55 -56.07,-849.85 -56.41,-848.11 -57.47,-846.67 -58.87,-845.55 -60.43,-844.65 -62.06,-843.89 -65.44,-842.66 -67.16,-842.15"/>
    </edge>
    <edge id=":71_6" function="internal">
        <lane id=":71_6_0" index="0" disallow="pedestrian tram rail_urban rail rail_electric rail_fast ship" speed="8.02" length="20.52" width="3.50" shape="-59.90,-855.09 -57.65,-853.02 -56.61,-851.57 -56.06,-849.89 -56.36,-848.15 -57.40,-846.71 -58.78,-845.59 -60.32,-844.68 -61.94,-843.93 -65.30,-842.70 -66.68,-842.28"/>
    </edge>
    <edge id=":71_7" function="internal">
        <lane id=":71_7_0" index="0" disallow="pedestrian tram rail_urban rail rail_electric rail_fast ship" speed="13.08" length="21.30" width="3.50" shape="-59.89,-855.10 -58.22,-853.72 -57.48,-853.25 -55.74,-852.47 -53.87,-851.98 -51.92,-851.71 -49.92,-851.64 -46.82,-851.82 -43.74,-852.27 -39.61,-853.19"/>
    </edge>
    <edge id=":71_8" function="internal">
        <lane id=":71_8_0" index="0" disallow="pedestrian tram rail_urban rail rail_electric rail_fast ship" speed="8.11" length="20.99" width="3.50" shape="-59.89,-855.10 -57.64,-853.01 -56.60,-851.55 -56.07,-849.85 -56.41,-848.11 -57.47,-846.67 -58.87,-845.55 -60.43,-844.65 -62.06,-843.89 -65.44,-842.66 -67.16,-842.15"/>
    </edge>
    <edge id=":71_9" function="internal">
        <lane id=":71_9_0" index="0" disallow="pedestrian tram rail_urban rail rail_electric rail_fast ship" speed="7.90" length="19.82" width="3.50" shape="-59.89,-855.10 -57.73,-853.02 -56.77,-851.22 -56.71,-848.94 -57.58,-847.07 -58.80,-845.80 -60.13,-844.89 -61.49,-844.17 -62.86,-843.57 -64.26,-843.05 -66.68,-842.28"/>
    </edge>
    <edge id=":71_10" function="internal">
        <lane id=":71_10_0" index="0" disallow="pedestrian tram rail_urban rail rail_electric rail_fast ship" speed="6.31" length="12.29" width="3.49" shape="-67.56,-845.67 -66.67,-845.94 -64.11,-846.84 -62.93,-847.36 -61.82,-847.95 -60.86,-848.63 -60.21,-849.35 -60.04,-849.92 -60.13,-850.25 -60.47,-850.85 -62.19,-852.41"/>
    </edge>
    <edge id=":71_11" function="internal">
        <lane id=":71_11_0" index="0" disallow="pedestrian tram rail_urban rail rail_electric rail_fast ship" speed="6.29" length="11.98" width="3.49" shape="-67.56,-845.67 -66.02,-846.15 -65.05,-846.48 -64.11,-846.85 -63.18,-847.25 -62.27,-847.72 -61.42,-848.27 -60.69,-848.97 -60.30,-849.89 -60.55,-850.85 -62.17,-852.45"/>
    </edge>
    <edge id=":71_12" function="internal">
        <lane id=":71_12_0" index="0" disallow="pedestrian tram rail_urban rail rail_electric rail_fast ship" speed="36.11" length="28.94" width="3.50" shape="-67.56,-845.67 -60.89,-847.53 -39.61,-853.19"/>
    </edge>
    <edge id=":71_13" function="internal">
        <lane id=":71_13_0" index="0" disallow="pedestrian tram rail_urban rail rail_electric rail_fast ship" speed="6.44" length="12.83" width="3.49" shape="-68.12,-845.51 -66.81,-845.90 -64.23,-846.81 -63.04,-847.33 -61.91,-847.92 -60.93,-848.60 -60.25,-849.34 -60.06,-849.93 -60.15,-850.25 -60.47,-850.85 -62.19,-852.41"/>
    </edge>
    <edge id=":71_14" function="internal">
        <lane id=":71_14_0" index="0" disallow="pedestrian tram rail_urban rail rail_electric rail_fast ship" speed="6.49" length="12.84" width="3.49" shape="-68.12,-845.51 -66.81,-845.90 -64.23,-846.81 -63.04,-847.33 -61.91,-847.92 -60.93,-848.60 -60.25,-849.34 -60.06,-849.93 -60.15,-850.25 -60.47,-850.85 -62.17,-852.45"/>
    </edge>
    <edge id=":71_15" function="internal">
        <lane id=":71_15_0" index="0" disallow="pedestrian tram rail_urban rail rail_electric rail_fast ship" speed="36.11" length="29.53" width="3.50" shape="-68.12,-845.51 -61.00,-847.50 -39.61,-853.19"/>
    </edge>
    <edge id=":72_0" function="internal">
        <lane id=":72_0_0" index="0" disallow="pedestrian tram rail_urban rail rail_electric rail_fast ship" speed="30.04" length="40.30" width="3.50" shape="6.51,-921.15 -2.10,-917.63 -8.69,-914.65 -14.22,-911.84 -18.70,-909.27 -22.15,-907.00 -24.62,-905.12 -26.93,-903.06 -28.34,-901.54"/>
    </edge>
    <edge id=":72_1" function="internal">
        <lane id=":72_1_0" index="0" disallow="pedestrian tram rail_urban rail rail_electric rail_fast ship" speed="36.11" length="34.82" width="3.50" shape="-5.90,-928.17 -17.12,-914.86 -28.34,-901.54"/>
    </edge>
    <edge id=":72_2" function="internal">
        <lane id=":72_2_0" index="0" disallow="pedestrian tram rail_urban rail rail_electric rail_fast ship" speed="36.11" length="34.82" width="3.50" shape="-31.01,-903.80 -19.80,-917.11 -8.58,-930.43"/>
    </edge>
    <edge id=":72_3" function="internal">
        <lane id=":72_3_0" index="0" disallow="pedestrian tram rail_urban rail rail_electric rail_fast ship" speed="30.67" length="42.04" width="3.50" shape="-31.02,-903.80 -29.47,-905.46 -27.01,-907.68 -24.39,-909.69 -20.78,-912.08 -16.12,-914.78 -10.41,-917.70 -3.61,-920.79 5.23,-924.41"/>
    </edge>
    <edge id=":73_0" function="internal">
        <lane id=":73_0_0" index="0" disallow="pedestrian tram rail_urban rail rail_electric rail_fast ship" speed="7.72" length="13.44" width="3.50" shape="-61.39,-851.77 -62.21,-852.41 -63.06,-852.91 -63.93,-853.26 -64.83,-853.43 -65.74,-853.41 -66.65,-853.19 -67.56,-852.80 -68.45,-852.27 -69.31,-851.62 -70.14,-850.87 -70.92,-850.07 -72.43,-848.24"/>
    </edge>
    <edge id=":73_1" function="internal">
        <lane id=":73_1_0" index="0" disallow="pedestrian tram rail_urban rail rail_electric rail_fast ship" speed="7.67" length="13.14" width="3.50" shape="-61.39,-851.77 -62.26,-852.43 -63.20,-852.94 -64.22,-853.27 -65.28,-853.38 -66.35,-853.24 -67.36,-852.90 -68.31,-852.39 -69.18,-851.77 -69.99,-851.07 -70.74,-850.30 -72.27,-848.45"/>
    </edge>
    <edge id=":73_2" function="internal">
        <lane id=":73_2_0" index="0" disallow="pedestrian tram rail_urban rail rail_electric rail_fast ship" speed="36.11" length="27.79" width="3.50" shape="-61.39,-851.77 -77.96,-865.66 -82.72,-869.58"/>
    </edge>
    <edge id=":73_3" function="internal">
        <lane id=":73_3_0" index="0" disallow="pedestrian tram rail_urban rail rail_electric rail_fast ship" speed="10.55" length="25.80" width="3.50" shape="-61.39,-851.77 -62.32,-852.69 -63.09,-853.72 -63.68,-854.87 -64.07,-856.10 -64.24,-857.37 -64.24,-858.66 -64.08,-859.94 -63.79,-861.20 -62.92,-863.62 -61.78,-865.94 -59.75,-869.23 -57.46,-872.35 -55.83,-874.34"/>
    </edge>
    <edge id=":73_4" function="internal">
        <lane id=":73_4_0" index="0" disallow="pedestrian tram rail_urban rail rail_electric rail_fast ship" speed="7.63" length="13.44" width="3.50" shape="-61.39,-851.77 -62.21,-852.41 -63.06,-852.91 -63.93,-853.26 -64.83,-853.43 -65.74,-853.41 -66.65,-853.19 -67.56,-852.80 -68.45,-852.27 -69.31,-851.62 -70.14,-850.87 -70.92,-850.07 -72.43,-848.24"/>
    </edge>
    <edge id=":73_5" function="internal">
        <lane id=":73_5_0" index="0" disallow="pedestrian tram rail_urban rail rail_electric rail_fast ship" speed="7.60" length="13.25" width="3.50" shape="-61.39,-851.77 -62.26,-852.45 -63.17,-852.98 -64.10,-853.34 -65.05,-853.50 -66.01,-853.44 -66.96,-853.17 -67.90,-852.71 -68.82,-852.10 -69.70,-851.36 -70.53,-850.54 -72.27,-848.45"/>
    </edge>
    <edge id=":73_6" function="internal">
        <lane id=":73_6_0" index="0" disallow="pedestrian tram rail_urban rail rail_electric rail_fast ship" speed="36.11" length="27.79" width="3.50" shape="-61.39,-851.77 -63.74,-853.78 -82.72,-869.58"/>
    </edge>
    <edge id=":73_7" function="internal">
        <lane id=":73_7_0" index="0" disallow="pedestrian tram rail_urban rail rail_electric rail_fast ship" speed="10.68" length="25.76" width="3.50" shape="-61.39,-851.77 -62.40,-852.80 -63.24,-854.04 -63.83,-855.41 -64.14,-856.84 -64.22,-858.26 -64.10,-859.62 -63.84,-860.91 -63.48,-862.15 -63.03,-863.36 -61.99,-865.57 -60.77,-867.68 -58.75,-870.64 -55.83,-874.34"/>
    </edge>
    <edge id=":73_8" function="internal">
        <lane id=":73_8_0" index="0" disallow="pedestrian tram rail_urban rail rail_electric rail_fast ship" speed="9.51" length="20.30" width="3.50" shape="-53.15,-872.09 -54.57,-870.35 -56.59,-867.66 -58.39,-864.86 -59.39,-862.95 -60.18,-860.98 -60.46,-860.04 -60.64,-859.08 -60.72,-858.15 -60.67,-857.27 -60.49,-856.47 -60.18,-855.73 -59.73,-855.05 -59.12,-854.43"/>
    </edge>
    <edge id=":73_9" function="internal">
        <lane id=":73_9_0" index="0" disallow="pedestrian tram rail_urban rail rail_electric rail_fast ship" speed="9.54" length="20.32" width="3.49" shape="-53.15,-872.09 -55.69,-868.91 -57.44,-866.42 -58.51,-864.69 -59.46,-862.89 -59.87,-861.96 -60.22,-861.01 -60.51,-860.03 -60.69,-859.03 -60.75,-858.02 -60.64,-857.01 -60.33,-856.04 -59.81,-855.17 -59.12,-854.43"/>
    </edge>
    <edge id=":73_10" function="internal">
        <lane id=":73_10_0" index="0" disallow="pedestrian tram rail_urban rail rail_electric rail_fast ship" speed="36.11" length="30.67" width="3.50" shape="-53.15,-872.09 -64.60,-858.23 -72.43,-848.24"/>
    </edge>
    <edge id=":73_11" function="internal">
        <lane id=":73_11_0" index="0" disallow="pedestrian tram rail_urban rail rail_electric rail_fast ship" speed="36.11" length="30.41" width="3.50" shape="-53.15,-872.09 -64.41,-858.47 -72.27,-848.45"/>
    </edge>
    <edge id=":73_12" function="internal">
        <lane id=":73_12_0" index="0" disallow="pedestrian tram rail_urban rail rail_electric rail_fast ship" speed="12.18" length="33.86" width="3.50" shape="-53.15,-872.09 -54.84,-870.22 -56.69,-868.47 -58.73,-866.88 -60.96,-865.52 -63.36,-864.48 -64.67,-864.08 -65.99,-863.80 -67.33,-863.64 -68.68,-863.59 -70.02,-863.66 -71.35,-863.83 -72.67,-864.12 -75.14,-864.93 -77.48,-866.02 -79.69,-867.34 -82.72,-869.58"/>
    </edge>
    <edge id=":73_13" function="internal">
        <lane id=":73_13_0" index="0" disallow="pedestrian tram rail_urban rail rail_electric rail_fast ship" speed="11.17" length="28.31" width="3.50" shape="-80.49,-872.28 -77.87,-870.34 -76.00,-869.22 -74.03,-868.30 -71.96,-867.62 -70.89,-867.39 -69.81,-867.24 -68.73,-867.19 -67.64,-867.22 -66.55,-867.36 -65.49,-867.58 -64.44,-867.89 -62.45,-868.76 -60.59,-869.89 -58.87,-871.23 -57.29,-872.73 -55.83,-874.34"/>
    </edge>
    <edge id=":73_14" function="internal">
        <lane id=":73_14_0" index="0" disallow="pedestrian tram rail_urban rail rail_electric rail_fast ship" speed="36.11" length="27.84" width="3.50" shape="-80.49,-872.28 -75.72,-868.35 -59.12,-854.43"/>
    </edge>
    <edge id=":73_15" function="internal">
        <lane id=":73_15_0" index="0" disallow="pedestrian tram rail_urban rail rail_electric rail_fast ship" speed="36.11" length="27.84" width="3.49" shape="-80.49,-872.28 -61.47,-856.44 -59.12,-854.43"/>
    </edge>
    <edge id=":73_16" function="internal">
        <lane id=":73_16_0" index="0" disallow="pedestrian tram rail_urban rail rail_electric rail_fast ship" speed="11.37" length="28.39" width="3.50" shape="-80.49,-872.28 -77.77,-869.89 -75.21,-867.29 -73.62,-865.37 -72.20,-863.29 -71.02,-861.05 -70.53,-859.81 -70.15,-858.53 -69.91,-857.20 -69.80,-855.84 -69.86,-854.47 -70.09,-853.11 -70.48,-851.79 -71.01,-850.53 -71.66,-849.36 -72.43,-848.24"/>
    </edge>
    <edge id=":73_17" function="internal">
        <lane id=":73_17_0" index="0" disallow="pedestrian tram rail_urban rail rail_electric rail_fast ship" speed="11.30" length="28.32" width="3.50" shape="-80.49,-872.28 -77.48,-869.63 -74.70,-866.75 -73.02,-864.66 -71.57,-862.42 -70.95,-861.24 -70.42,-860.01 -70.01,-858.74 -69.73,-857.43 -69.60,-856.10 -69.63,-854.76 -69.83,-853.44 -70.20,-852.16 -70.71,-850.92 -71.36,-849.75 -72.27,-848.45"/>
    </edge>
    <edge id=":73_18" function="internal">
        <lane id=":73_18_0" index="0" disallow="pedestrian tram rail_urban rail rail_electric rail_fast ship" speed="9.98" length="21.97" width="3.50" shape="-74.11,-851.80 -74.34,-851.60 -73.86,-852.49 -73.49,-853.40 -73.26,-854.35 -73.15,-855.33 -73.17,-856.31 -73.32,-857.31 -73.58,-858.30 -73.95,-859.29 -74.41,-860.25 -74.93,-861.19 -76.20,-863.05 -77.64,-864.79 -80.09,-867.28 -82.72,-869.58"/>
    </edge>
    <edge id=":73_19" function="internal">
        <lane id=":73_19_0" index="0" disallow="pedestrian tram rail_urban rail rail_electric rail_fast ship" speed="36.11" length="29.02" width="3.50" shape="-74.11,-851.80 -67.15,-860.65 -55.83,-874.34"/>
    </edge>
    <edge id=":73_20" function="internal">
        <lane id=":73_20_0" index="0" disallow="pedestrian tram rail_urban rail rail_electric rail_fast ship" speed="8.66" length="17.35" width="3.50" shape="-74.11,-851.80 -73.10,-852.92 -72.05,-853.95 -70.90,-854.90 -69.62,-855.74 -68.18,-856.42 -66.60,-856.85 -64.93,-856.95 -63.28,-856.70 -61.73,-856.15 -60.35,-855.37 -59.12,-854.43"/>
    </edge>
    <edge id=":73_21" function="internal">
        <lane id=":73_21_0" index="0" disallow="pedestrian tram rail_urban rail rail_electric rail_fast ship" speed="8.67" length="17.48" width="3.49" shape="-74.11,-851.80 -72.89,-853.15 -71.76,-854.24 -70.54,-855.22 -69.21,-856.06 -67.78,-856.69 -66.26,-857.04 -64.69,-857.07 -63.16,-856.77 -61.70,-856.19 -60.36,-855.39 -59.12,-854.43"/>
    </edge>
    <edge id=":73_22" function="internal">
        <lane id=":73_22_0" index="0" disallow="pedestrian tram rail_urban rail rail_electric rail_fast ship" speed="10.24" length="23.06" width="3.50" shape="-75.24,-850.31 -74.62,-851.23 -74.13,-852.15 -73.74,-853.12 -73.48,-854.13 -73.35,-855.17 -73.36,-856.21 -73.49,-857.25 -73.74,-858.27 -74.08,-859.25 -74.51,-860.21 -75.55,-862.02 -76.77,-863.72 -78.14,-865.30 -80.36,-867.52 -82.72,-869.58"/>
    </edge>
    <edge id=":73_23" function="internal">
        <lane id=":73_23_0" index="0" disallow="pedestrian tram rail_urban rail rail_electric rail_fast ship" speed="36.11" length="30.89" width="3.50" shape="-75.25,-850.32 -67.34,-860.41 -55.83,-874.34"/>
    </edge>
    <edge id=":73_24" function="internal">
        <lane id=":73_24_0" index="0" disallow="pedestrian tram rail_urban rail rail_electric rail_fast ship" speed="9.07" length="19.27" width="3.50" shape="-75.25,-850.32 -73.32,-852.63 -72.28,-853.69 -71.16,-854.66 -69.96,-855.52 -68.67,-856.23 -67.29,-856.75 -65.83,-857.01 -64.36,-856.99 -62.92,-856.67 -61.55,-856.10 -60.29,-855.34 -59.12,-854.43"/>
    </edge>
    <edge id=":73_25" function="internal">
        <lane id=":73_25_0" index="0" disallow="pedestrian tram rail_urban rail rail_electric rail_fast ship" speed="9.05" length="19.27" width="3.49" shape="-75.25,-850.32 -73.32,-852.63 -72.28,-853.69 -71.16,-854.66 -69.96,-855.52 -68.67,-856.23 -67.29,-856.75 -65.83,-857.01 -64.36,-856.99 -62.92,-856.67 -61.55,-856.10 -60.29,-855.34 -59.12,-854.43"/>
    </edge>
    <edge id=":74_0" function="internal">
        <lane id=":74_0_0" index="0" disallow="pedestrian tram rail_urban rail rail_electric rail_fast ship" speed="25.06" length="50.71" width="3.50" shape="40.94,-946.25 37.93,-945.64 28.87,-943.62 20.91,-941.53 14.07,-939.39 8.34,-937.25 3.73,-935.16 0.23,-933.23 -2.22,-931.59 -4.45,-929.73 -5.78,-928.33"/>
    </edge>
    <edge id=":74_1" function="internal">