<routes>
	<vehicle depart="0.1" departLane="0" departPos="1.0" departSpeed="8.2635462" id="349" type="bicycle">
		<route edges=":17_3 22010"/>
	</vehicle>
	<vehicle depart="0.1" departLane="0" departPos="20.271431730189914" departSpeed="4.4807176" id="357" type="bus">
		<route edges="21893 21751"/>
	</vehicle>
	<vehicle depart="0.1" departLane="0" departPos="6.218150546572575" departSpeed="0.67868029" id="310" type="passenger">
		<route edges=":17_2 21751"/>
	</vehicle>
	<vehicle depart="0.1" departLane="1" departPos="35.22256030277026" departSpeed="0.36113759" id="314" type="passenger">
		<route edges="21749 22124"/>
	</vehicle>
	<vehicle depart="0.1" departLane="1" departPos="29.732141912103387" departSpeed="2.5388621" id="321" type="passenger">
		<route edges="21893 22010"/>
	</vehicle>
	<vehicle depart="0.1" departLane="0" departPos="7.303753474962307" departSpeed="13.499643" id="352" type="passenger">
		<route edges=":17_4 21891"/>
	</vehicle>
	<vehicle depart="0.1" departLane="0" departPos="34.98444030110027" departSpeed="6.7408923" id="353" type="passenger">
		<route edges="21893 21751"/>
	</vehicle>
	<vehicle depart="0.1" departLane="0" departPos="3.75" departSpeed="0.018742194" id="319" type="truck">
		<route edges=":17_5 22124"/>
	</vehicle>
	<vehicle depart="0.1" departLane="1" departPos="21.148356357109783" departSpeed="1.2731127" id="328" type="truck">
		<route edges="21893 22010"/>
	</vehicle>
	<vehicle depart="0.1" departLane="0" departPos="9.302275921256054" departSpeed="7.9979598" id="350" type="truck">
		<route edges=":17_10 21751"/>
	</vehicle>
</routes>
