<routes>
	<vehicle depart="0.1" departLane="0" departPos="67.44526969660699" departSpeed="6.509812" id="33" type="passenger">
		<route edges="37870 37873"/>
	</vehicle>
	<vehicle depart="0.1" departLane="0" departPos="32.25998635088105" departSpeed="0.098700902" id="36" type="passenger">
		<route edges="37827 38461"/>
	</vehicle>
	<vehicle depart="0.1" departLane="0" departPos="70.64563802317203" departSpeed="0.0" id="38" type="passenger">
		<route edges="38558 37869"/>
	</vehicle>
	<vehicle depart="0.1" departLane="0" departPos="14.351374276366231" departSpeed="6.697209" id="311" type="passenger">
		<route edges=":31_5 37873 37826"/>
	</vehicle>
	<vehicle depart="0.1" departLane="0" departPos="2.5" departSpeed="2.1953277" id="315" type="passenger">
		<route edges="38556 38559"/>
	</vehicle>
	<vehicle depart="0.1" departLane="0" departPos="20.30857563073171" departSpeed="2.1239277" id="338" type="passenger">
		<route edges=":33_3 37872 37869"/>
	</vehicle>
	<vehicle depart="0.1" departLane="0" departPos="17.539902931961556" departSpeed="0.66419864" id="342" type="passenger">
		<route edges=":33_10 38461"/>
	</vehicle>
	<vehicle depart="0.1" departLane="0" departPos="12.172175594477528" departSpeed="0.18433573" id="344" type="passenger">
		<route edges=":33_3 37872"/>
	</vehicle>
	<vehicle depart="0.1" departLane="0" departPos="72.49999744068755" departSpeed="0.55767213" id="346" type="passenger">
		<route edges="38460 37872 37869"/>
	</vehicle>
	<vehicle depart="0.1" departLane="0" departPos="42.45760506723692" departSpeed="0.73798209" id="30" type="truck">
		<route edges="37827 37872"/>
	</vehicle>
</routes>
