<routes>
	<vehicle depart="0.1" departLane="0" departPos="39.670554051335294" departSpeed="1.7300804e-05" id="321" type="bicycle">
		<route edges="778 147"/>
	</vehicle>
	<vehicle depart="0.1" departLane="0" departPos="101.23006966777089" departSpeed="4.2854594" id="324" type="bicycle">
		<route edges="40 25"/>
	</vehicle>
	<vehicle depart="0.1" departLane="0" departPos="60.80119322838869" departSpeed="6.87315" id="374" type="bicycle">
		<route edges="329 146 143"/>
	</vehicle>
	<vehicle depart="0.1" departLane="0" departPos="23.8357159296764" departSpeed="6.4722438" id="384" type="bicycle">
		<route edges="342 345 140"/>
	</vehicle>
	<vehicle depart="0.1" departLane="0" departPos="75.12013296758678" departSpeed="11.880815" id="339" type="bus">
		<route edges="41 36"/>
	</vehicle>
	<vehicle depart="0.1" departLane="0" departPos="35.48736371997979" departSpeed="0.00024960101" id="340" type="bus">
		<route edges="778 147"/>
	</vehicle>
	<vehicle depart="0.1" departLane="0" departPos="16.162326603416854" departSpeed="0.0" id="32" type="passenger">
		<route edges="140 41"/>
	</vehicle>
	<vehicle depart="0.1" departLane="0" departPos="45.30083856350529" departSpeed="0.0" id="34" type="passenger">
		<route edges="778 147"/>
	</vehicle>
	<vehicle depart="0.1" departLane="0" departPos="189.09273957449457" departSpeed="0.0" id="37" type="passenger">
		<route edges="146 143"/>
	</vehicle>
	<vehicle depart="0.1" departLane="0" departPos="9.822245279636263" departSpeed="9.4832971e-05" id="39" type="passenger">
		<route edges="140 41"/>
	</vehicle>
	<vehicle depart="0.1" departLane="0" departPos="178.99887470125583" departSpeed="0.0" id="314" type="passenger">
		<route edges="345 140"/>
	</vehicle>
	<vehicle depart="0.1" departLane="0" departPos="2.5" departSpeed="0.0" id="315" type="passenger">
		<route edges=":50_2 140"/>
	</vehicle>
	<vehicle depart="0.1" departLane="0" departPos="171.48411005299133" departSpeed="0.014018937" id="322" type="passenger">
		<route edges="345 140"/>
	</vehicle>
	<vehicle depart="0.1" departLane="0" departPos="163.84830959145597" departSpeed="0.14948752" id="325" type="passenger">
		<route edges="345 140"/>
	</vehicle>
	<vehicle depart="0.1" departLane="0" departPos="182.23599915571012" departSpeed="0.0027001916" id="335" type="passenger">
		<route edges="146 143"/>
	</vehicle>
	<vehicle depart="0.1" departLane="0" departPos="154.91504426720422" departSpeed="1.4118973" id="336" type="passenger">
		<route edges="345 140"/>
	</vehicle>
	<vehicle depart="0.1" departLane="0" departPos="175.21890001499287" departSpeed="0.043686976" id="337" type="passenger">
		<route edges="146 143"/>
	</vehicle>
	<vehicle depart="0.1" departLane="0" departPos="113.42603437286505" departSpeed="0.052930397" id="338" type="passenger">
		<route edges="40 25"/>
	</vehicle>
	<vehicle depart="0.1" departLane="0" departPos="167.53321558065156" departSpeed="0.3285188" id="343" type="passenger">
		<route edges="146 143"/>
	</vehicle>
	<vehicle depart="0.1" departLane="0" departPos="142.79562403450709" departSpeed="4.0292296" id="346" type="passenger">
		<route edges="345 140"/>
	</vehicle>
	<vehicle depart="0.1" departLane="0" departPos="10.494663384057201" departSpeed="8.5774736" id="347" type="passenger">
		<route edges="344 341"/>
	</vehicle>
	<vehicle depart="0.1" departLane="0" departPos="158.86892442553074" departSpeed="1.3931687" id="350" type="passenger">
		<route edges="146 143"/>
	</vehicle>
	<vehicle depart="0.1" departLane="0" departPos="148.36609337801778" departSpeed="3.1503014" id="351" type="passenger">
		<route edges="146 143"/>
	</vehicle>
	<vehicle depart="0.1" departLane="0" departPos="21.10932321210855" departSpeed="0.0016965611" id="353" type="passenger">
		<route edges="778 147"/>
	</vehicle>
	<vehicle depart="0.1" departLane="0" departPos="126.25987409472083" departSpeed="7.3823657" id="354" type="passenger">
		<route edges="345 140"/>
	</vehicle>
	<vehicle depart="0.1" departLane="0" departPos="135.03079637184888" departSpeed="5.1079251" id="355" type="passenger">
		<route edges="146 143"/>
	</vehicle>
	<vehicle depart="0.1" departLane="0" departPos="5.716217993340049" departSpeed="6.5192159" id="356" type="passenger">
		<route edges=":50_0 344 966"/>
	</vehicle>
	<vehicle depart="0.1" departLane="0" departPos="119.38430875017727" departSpeed="6.9312363" id="357" type="passenger">
		<route edges="146 143"/>
	</vehicle>
	<vehicle depart="0.1" departLane="0" departPos="104.1353775259527" departSpeed="1.8824992" id="358" type="passenger">
		<route edges="40 25"/>
	</vehicle>
	<vehicle depart="0.1" departLane="0" departPos="104.38646864268134" departSpeed="10.772789" id="360" type="passenger">
		<route edges="345 140"/>
	</vehicle>
	<vehicle depart="0.1" departLane="0" departPos="102.3278484918368" departSpeed="8.4321317" id="361" type="passenger">
		<route edges="146 143"/>
	</vehicle>
	<vehicle depart="0.1" departLane="0" departPos="23.096546404741698" departSpeed="12.449206" id="363" type="passenger">
		<route edges="41 44"/>
	</vehicle>
	<vehicle depart="0.1" departLane="0" departPos="14.267035245252977" departSpeed="0.0079184365" id="364" type="passenger">
		<route edges="778 147"/>
	</vehicle>
	<vehicle depart="0.1" departLane="0" departPos="84.49525581386264" departSpeed="9.495168" id="365" type="passenger">
		<route edges="146 143"/>
	</vehicle>
	<vehicle depart="0.1" departLane="0" departPos="78.35834644151655" departSpeed="13.729723" id="367" type="passenger">
		<route edges="345 140"/>
	</vehicle>
	<vehicle depart="0.1" departLane="0" departPos="2.5" departSpeed="10.66012" id="368" type="passenger">
		<route edges="141 144 147 330"/>
	</vehicle>
	<vehicle depart="0.1" departLane="0" departPos="74.80988877562623" departSpeed="7.3616238" id="370" type="passenger">
		<route edges="40 25"/>
	</vehicle>
	<vehicle depart="0.1" departLane="0" departPos="65.01040217869922" departSpeed="10.797547" id="371" type="passenger">
		<route edges="146 143"/>
	</vehicle>
	<vehicle depart="0.1" departLane="0" departPos="45.42965199427636" departSpeed="11.393369" id="372" type="passenger">
		<route edges="146 143"/>
	</vehicle>
	<vehicle depart="0.1" departLane="0" departPos="56.69116302454622" departSpeed="8.9827621" id="376" type="passenger">
		<route edges="40 25"/>
	</vehicle>
	<vehicle depart="0.1" departLane="0" departPos="7.557808804859628" departSpeed="0.026781425" id="377" type="passenger">
		<route edges="778 147"/>
	</vehicle>
	<vehicle depart="0.1" departLane="0" departPos="2.5" departSpeed="17.307451" id="378" type="passenger">
		<route edges="146 143"/>
	</vehicle>
	<vehicle depart="0.1" departLane="0" departPos="48.745908234951266" departSpeed="9.3979447" id="380" type="passenger">
		<route edges="26 141 144"/>
	</vehicle>
	<vehicle depart="0.1" departLane="0" departPos="36.270648540987956" departSpeed="10.790442" id="381" type="passenger">
		<route edges="40 25"/>
	</vehicle>
	<vehicle depart="0.1" departLane="0" departPos="51.495820122371335" departSpeed="13.856226" id="383" type="passenger">
		<route edges="329 146 143"/>
	</vehicle>
	<vehicle depart="0.1" departLane="0" departPos="33.629438089222944" departSpeed="8.6001221" id="385" type="passenger">
		<route edges="26 141 144"/>
	</vehicle>
	<vehicle depart="0.1" departLane="0" departPos="12.723663478426195" departSpeed="10.234572" id="386" type="passenger">
		<route edges="40 25"/>
	</vehicle>
	<vehicle depart="0.1" departLane="0" departPos="31.27226721570174" departSpeed="10.668447" id="387" type="passenger">
		<route edges="329 146 143"/>
	</vehicle>
	<vehicle depart="0.1" departLane="0" departPos="19.35475864042585" departSpeed="7.7925576" id="388" type="passenger">
		<route edges="26 141 144"/>
	</vehicle>
	<vehicle depart="0.1" departLane="0" departPos="14.918262231110672" departSpeed="6.3097488" id="390" type="passenger">
		<route edges="329 146 143"/>
	</vehicle>
	<vehicle depart="0.1" departLane="0" departPos="6.425153020092674" departSpeed="2.6322144" id="391" type="passenger">
		<route edges="329 146 143"/>
	</vehicle>
	<vehicle depart="0.1" departLane="0" departPos="122.87773606460688" departSpeed="0.0019988248" id="349" type="motorcycle">
		<route edges="40 25"/>
	</vehicle>
	<vehicle depart="0.1" departLane="0" departPos="88.41272231928019" departSpeed="5.5709346" id="366" type="motorcycle">
		<route edges="40 25"/>
	</vehicle>
	<vehicle depart="0.1" departLane="0" departPos="123.03466390483445" departSpeed="0.0" id="30" type="truck">
		<route edges="40 25"/>
	</vehicle>
	<vehicle depart="0.1" departLane="0" departPos="6.468539350047559" departSpeed="8.2958659" id="379" type="truck">
		<route edges=":54_5 345 140"/>
	</vehicle>
	<vehicle depart="0.1" departLane="0" departPos="14.323767234238368" departSpeed="3.7761301" id="389" type="truck">
		<route edges="342 345 140"/>
	</vehicle>
</routes>
