<routes>
	<vehicle depart="0.1" departLane="0" departPos="8.525654401608055" departSpeed="13.351684" id="310" type="passenger">
		<route edges="52399 52414"/>
	</vehicle>
	<vehicle depart="0.1" departLane="0" departPos="10.646173744124107" departSpeed="10.746783" id="318" type="passenger">
		<route edges=":119_3 52399 52414"/>
	</vehicle>
	<vehicle depart="0.1" departLane="0" departPos="25.901842318679794" departSpeed="9.5398156" id="319" type="passenger">
		<route edges="52321 52399 52414"/>
	</vehicle>
	<vehicle depart="0.1" departLane="0" departPos="2.5" departSpeed="8.2094625" id="335" type="passenger">
		<route edges=":115_4 52323 52399"/>
	</vehicle>
	<vehicle depart="0.1" departLane="0" departPos="13.165786921266761" departSpeed="3.8278602" id="30" type="truck">
		<route edges=":119_4 52320"/>
	</vehicle>
	<vehicle depart="0.1" departLane="0" departPos="14.81154735861826" departSpeed="4.9203279" id="366" type="truck">
		<route edges="52321 52399"/>
	</vehicle>
</routes>
