<!-- generated on Tue Feb  9 22:07:27 2021 by Eclipse SUMO netconvert Version 1.8.0
<configuration xmlns:xsi="http://www.w3.org/2001/XMLSchema-instance" xsi:noNamespaceSchemaLocation="http://sumo.dlr.de/xsd/netconvertConfiguration.xsd">

    <input>
        <node-files value="./converted_scenarios/scenario-factory/DEU_Guetersloh-30_2_I-1-1/DEU_Guetersloh-30_2_I-1-1.nod.xml"/>
        <edge-files value="./converted_scenarios/scenario-factory/DEU_Guetersloh-30_2_I-1-1/DEU_Guetersloh-30_2_I-1-1.edg.xml"/>
        <connection-files value="./converted_scenarios/scenario-factory/DEU_Guetersloh-30_2_I-1-1/DEU_Guetersloh-30_2_I-1-1.con.xml"/>
        <tllogic-files value="./converted_scenarios/scenario-factory/DEU_Guetersloh-30_2_I-1-1/DEU_Guetersloh-30_2_I-1-1.tll.xml"/>
        <type-files value="/home/zen/commonroad-interactive-benchmarks/install/commonroad-map-tool/crmapconverter/sumo_map/templates/DEU.typ.xml"/>
    </input>

    <output>
        <output-file value="./converted_scenarios/scenario-factory/DEU_Guetersloh-30_2_I-1-1/DEU_Guetersloh-30_2_I-1-1.net.xml"/>
    </output>

    <processing>
        <geometry.remove.keep-edges.explicit value="true"/>
        <geometry.avoid-overlap value="true"/>
        <offset.disable-normalization value="true"/>
    </processing>

    <junctions>
        <no-turnarounds value="true"/>
        <junctions.internal-link-detail value="20"/>
    </junctions>

    <report>
        <aggregate-warnings value="5"/>
    </report>

    <random_number>
        <seed value="1234"/>
    </random_number>

</configuration>
--><net xmlns:xsi="http://www.w3.org/2001/XMLSchema-instance" version="1.6" junctionCornerDetail="5" junctionLinkDetail="20" limitTurnSpeed="5.50" xsi:noNamespaceSchemaLocation="http://sumo.dlr.de/xsd/net_file.xsd">

    <location netOffset="0.00,0.00" convBoundary="43.84,-214.75,274.19,40.84" origBoundary="43.84,-214.75,274.19,40.84" projParameter="!"/>

    <type id="highway.bridleway" priority="1" speed="2.78" allow="pedestrian" oneway="1" width="2.00"/>
    <type id="highway.bus_guideway" priority="1" speed="27.78" allow="bus" oneway="1"/>
    <type id="highway.cycleway" priority="1" speed="8.33" allow="bicycle" oneway="0" width="1.00"/>
    <type id="highway.footway" priority="1" speed="2.78" allow="pedestrian" oneway="1" width="2.00"/>
    <type id="highway.ford" priority="1" speed="2.78" allow="army" oneway="0"/>
    <type id="highway.living_street" priority="2" speed="2.78" disallow="tram rail_urban rail rail_electric rail_fast ship" oneway="0"/>
    <type id="highway.motorway" priority="14" speed="39.44" allow="private emergency authority army vip passenger hov taxi bus coach delivery truck trailer motorcycle evehicle custom1 custom2" oneway="1"/>
    <type id="highway.motorway_link" priority="9" speed="22.22" allow="private emergency authority army vip passenger hov taxi bus coach delivery truck trailer motorcycle evehicle custom1 custom2" oneway="1"/>
    <type id="highway.path" priority="1" speed="2.78" allow="pedestrian bicycle" oneway="0" width="2.00"/>
    <type id="highway.pedestrian" priority="1" speed="2.78" allow="pedestrian" oneway="1" width="2.00"/>
    <type id="highway.primary" priority="12" speed="27.78" disallow="pedestrian tram rail_urban rail rail_electric rail_fast ship" oneway="0"/>
    <type id="highway.primary_link" priority="7" speed="22.22" disallow="pedestrian tram rail_urban rail rail_electric rail_fast ship" oneway="0"/>
    <type id="highway.raceway" priority="15" speed="83.33" allow="vip" oneway="0"/>
    <type id="highway.residential" priority="3" speed="13.89" disallow="pedestrian tram rail_urban rail rail_electric rail_fast ship" oneway="0"/>
    <type id="highway.secondary" priority="11" speed="27.78" disallow="pedestrian tram rail_urban rail rail_electric rail_fast ship" oneway="0"/>
    <type id="highway.secondary_link" priority="6" speed="22.22" disallow="pedestrian tram rail_urban rail rail_electric rail_fast ship" oneway="0"/>
    <type id="highway.service" priority="1" speed="5.56" allow="pedestrian delivery bicycle" oneway="0"/>
    <type id="highway.stairs" priority="1" speed="1.39" allow="pedestrian" oneway="1" width="2.00"/>
    <type id="highway.step" priority="1" speed="1.39" allow="pedestrian" oneway="1" width="2.00"/>
    <type id="highway.steps" priority="1" speed="1.39" allow="pedestrian" oneway="1" width="2.00"/>
    <type id="highway.tertiary" priority="10" speed="22.22" disallow="pedestrian tram rail_urban rail rail_electric rail_fast ship" oneway="0"/>
    <type id="highway.tertiary_link" priority="5" speed="22.22" disallow="pedestrian tram rail_urban rail rail_electric rail_fast ship" oneway="0"/>
    <type id="highway.track" priority="1" speed="5.56" allow="pedestrian motorcycle moped bicycle" oneway="0"/>
    <type id="highway.trunk" priority="13" speed="27.78" disallow="pedestrian bicycle tram rail_urban rail rail_electric rail_fast ship" oneway="0"/>
    <type id="highway.trunk_link" priority="8" speed="22.22" disallow="pedestrian bicycle tram rail_urban rail rail_electric rail_fast ship" oneway="0"/>
    <type id="highway.unclassified" priority="4" speed="13.89" disallow="pedestrian tram rail_urban rail rail_electric rail_fast ship" oneway="0"/>
    <type id="highway.unsurfaced" priority="1" speed="8.33" disallow="tram rail_urban rail rail_electric rail_fast ship" oneway="0"/>
    <type id="railway.highspeed" priority="21" speed="69.44" allow="rail_fast" oneway="1"/>
    <type id="railway.light_rail" priority="19" speed="27.78" allow="rail_urban" oneway="1"/>
    <type id="railway.preserved" priority="16" speed="27.78" allow="rail" oneway="1"/>
    <type id="railway.rail" priority="20" speed="44.44" allow="rail" oneway="1"/>
    <type id="railway.subway" priority="18" speed="27.78" allow="rail_urban" oneway="1"/>
    <type id="railway.tram" priority="17" speed="13.89" allow="tram" oneway="1"/>

    <edge id=":22_0" function="internal">
        <lane id=":22_0_0" index="0" disallow="pedestrian tram rail_urban rail rail_electric rail_fast ship" speed="36.11" length="2.98" width="3.50" shape="175.74,12.56 176.92,15.30"/>
    </edge>
    <edge id=":26_0" function="internal">
        <lane id=":26_0_0" index="0" disallow="pedestrian tram rail_urban rail rail_electric rail_fast ship" speed="36.11" length="0.10" width="3.50" shape="113.17,-38.26 113.17,-38.26"/>
    </edge>
    <edge id=":29_0" function="internal">
        <lane id=":29_0_0" index="0" disallow="pedestrian tram rail_urban rail rail_electric rail_fast ship" speed="36.11" length="2.99" width="3.50" shape="173.70,16.68 172.52,13.93"/>
    </edge>
    <edge id=":50_0" function="internal">
        <lane id=":50_0_0" index="0" disallow="pedestrian tram rail_urban rail rail_electric rail_fast ship" speed="36.11" length="2.81" width="3.50" shape="112.83,-41.97 115.52,-41.17"/>
    </edge>
    <edge id=":53_0" function="internal">
        <lane id=":53_0_0" index="0" disallow="pedestrian tram rail_urban rail rail_electric rail_fast ship" speed="36.11" length="2.98" width="3.49" shape="155.68,-56.32 156.05,-59.28"/>
    </edge>
    <edge id=":55_0" function="internal">
        <lane id=":55_0_0" index="0" disallow="pedestrian tram rail_urban rail rail_electric rail_fast ship" speed="11.63" length="29.53" width="3.50" shape="186.07,-132.22 182.64,-132.22 180.43,-132.02 178.26,-131.62 176.17,-131.00 174.21,-130.14 172.39,-129.00 171.60,-128.36 170.83,-127.64 170.14,-126.89 168.87,-125.14 167.86,-123.24 167.07,-121.20 166.49,-119.08 165.93,-115.71"/>
    </edge>
    <edge id=":55_1" function="internal">
        <lane id=":55_1_0" index="0" disallow="pedestrian tram rail_urban rail rail_electric rail_fast ship" speed="11.89" length="34.64" width="3.50" shape="186.07,-132.22 182.07,-132.61 179.46,-133.14 176.92,-133.93 174.50,-135.05 173.36,-135.74 172.29,-136.52 171.29,-137.40 170.38,-138.37 169.57,-139.42 168.85,-140.55 168.25,-141.73 167.75,-142.97 167.03,-145.53 166.66,-148.16 166.56,-150.82 166.81,-154.82"/>
    </edge>
    <edge id=":55_2" function="internal">
        <lane id=":55_2_0" index="0" disallow="pedestrian tram rail_urban rail rail_electric rail_fast ship" speed="10.88" length="28.82" width="3.50" shape="170.29,-154.44 170.06,-150.94 170.15,-148.69 170.46,-146.49 171.06,-144.35 171.45,-143.39 171.94,-142.44 172.50,-141.55 173.14,-140.72 173.86,-139.96 174.65,-139.26 175.51,-138.63 176.40,-138.09 178.41,-137.16 180.54,-136.50 182.75,-136.06 186.24,-135.72"/>
    </edge>
    <edge id=":55_3" function="internal">
        <lane id=":55_3_0" index="0" disallow="pedestrian tram rail_urban rail rail_electric rail_fast ship" speed="36.11" length="38.97" width="3.50" shape="170.29,-154.44 168.11,-135.08 165.93,-115.71"/>
    </edge>
    <edge id=":55_4" function="internal">
        <lane id=":55_4_0" index="0" disallow="pedestrian tram rail_urban rail rail_electric rail_fast ship" speed="36.11" length="38.96" width="3.50" shape="162.45,-116.10 164.64,-135.47 166.81,-154.82"/>
    </edge>
    <edge id=":55_5" function="internal">
        <lane id=":55_5_0" index="0" disallow="pedestrian tram rail_urban rail rail_electric rail_fast ship" speed="12.61" length="34.87" width="3.50" shape="162.45,-116.10 163.09,-119.95 163.78,-122.44 164.70,-124.84 165.91,-127.12 167.42,-129.21 168.28,-130.16 169.22,-131.05 170.23,-131.85 172.41,-133.22 174.77,-134.27 177.23,-135.01 179.77,-135.48 182.34,-135.72 186.24,-135.72"/>
    </edge>
    <edge id=":56_0" function="internal">
        <lane id=":56_0_0" index="0" disallow="pedestrian tram rail_urban rail rail_electric rail_fast ship" speed="36.11" length="28.76" width="3.50" shape="154.56,-12.16 146.75,-18.93 140.31,-24.08 135.33,-27.66 131.90,-29.80"/>
    </edge>
    <edge id=":56_1" function="internal">
        <lane id=":56_1_0" index="0" disallow="pedestrian tram rail_urban rail rail_electric rail_fast ship" speed="13.33" length="32.89" width="3.50" shape="154.56,-12.16 153.66,-12.99 152.02,-14.75 150.53,-16.70 149.26,-18.82 148.25,-21.10 147.56,-23.50 147.19,-25.97 147.14,-28.45 147.38,-30.89 147.86,-33.28 148.56,-35.60 149.89,-38.90 151.48,-42.01"/>
    </edge>
    <edge id=":56_2" function="internal">
        <lane id=":56_2_0" index="0" disallow="pedestrian tram rail_urban rail rail_electric rail_fast ship" speed="12.40" length="28.27" width="3.50" shape="154.60,-40.42 153.12,-37.55 151.94,-34.65 151.34,-32.65 150.91,-30.61 150.69,-28.54 150.71,-26.45 151.00,-24.38 151.56,-22.37 152.38,-20.46 153.45,-18.66 154.71,-17.00 156.13,-15.47 156.90,-14.76"/>
    </edge>
    <edge id=":56_3" function="internal">
        <lane id=":56_3_0" index="0" disallow="pedestrian tram rail_urban rail rail_electric rail_fast ship" speed="10.99" length="28.46" width="3.50" shape="154.60,-40.42 153.90,-39.22 151.83,-36.06 150.23,-34.02 148.43,-32.11 146.40,-30.42 145.24,-29.65 144.02,-28.99 142.71,-28.46 141.35,-28.08 139.94,-27.85 138.51,-27.81 137.09,-27.93 135.71,-28.22 134.38,-28.64 133.11,-29.17 131.90,-29.80"/>
    </edge>
    <edge id=":56_4" function="internal">
        <lane id=":56_4_0" index="0" disallow="pedestrian tram rail_urban rail rail_electric rail_fast ship" speed="9.86" length="22.76" width="3.50" shape="133.62,-32.85 134.60,-32.34 135.61,-31.92 136.65,-31.61 137.71,-31.42 138.80,-31.36 139.88,-31.44 140.94,-31.65 141.97,-31.99 142.96,-32.45 143.89,-32.99 144.78,-33.62 146.41,-35.06 147.87,-36.66 149.19,-38.38 150.96,-41.12 151.48,-42.01"/>
    </edge>
    <edge id=":56_5" function="internal">
        <lane id=":56_5_0" index="0" disallow="pedestrian tram rail_urban rail rail_electric rail_fast ship" speed="36.11" length="29.53" width="3.50" shape="133.62,-32.85 137.22,-30.61 142.35,-26.93 148.93,-21.66 156.90,-14.76"/>
    </edge>
    <edge id=":57_0" function="internal">
        <lane id=":57_0_0" index="0" disallow="pedestrian tram rail_urban rail rail_electric rail_fast ship" speed="9.87" length="21.55" width="3.45" shape="179.61,-73.08 173.94,-73.41 169.43,-73.43 166.12,-73.21 164.01,-72.88 163.05,-72.63 162.16,-72.31 161.46,-71.93 161.13,-71.66 160.66,-68.95"/>
    </edge>
    <edge id=":57_1" function="internal">
        <lane id=":57_1_0" index="0" disallow="pedestrian tram rail_urban rail rail_electric rail_fast ship" speed="12.08" length="34.37" width="3.50" shape="179.61,-73.08 177.08,-73.36 174.55,-73.82 172.04,-74.51 169.59,-75.49 167.28,-76.77 166.15,-77.58 165.11,-78.47 164.15,-79.45 163.28,-80.52 162.52,-81.67 161.86,-82.87 161.32,-84.11 160.87,-85.41 160.28,-87.98 160.00,-90.59 159.99,-93.18 160.18,-95.71"/>
    </edge>
    <edge id=":57_2" function="internal">
        <lane id=":57_2_0" index="0" disallow="pedestrian tram rail_urban rail rail_electric rail_fast ship" speed="11.07" length="28.69" width="3.50" shape="163.66,-95.34 163.49,-93.14 163.50,-90.94 163.74,-88.74 164.24,-86.59 164.60,-85.55 165.05,-84.54 165.58,-83.58 166.20,-82.66 166.90,-81.81 167.67,-81.02 168.51,-80.30 169.41,-79.66 171.34,-78.59 173.39,-77.79 175.52,-77.21 177.69,-76.81 179.89,-76.57"/>
    </edge>
    <edge id=":57_3" function="internal">
        <lane id=":57_3_0" index="0" disallow="pedestrian tram rail_urban rail rail_electric rail_fast ship" speed="36.11" length="26.56" width="3.45" shape="163.66,-95.34 162.31,-83.39 160.66,-68.95"/>
    </edge>
    <edge id=":57_4" function="internal">
        <lane id=":57_4_0" index="0" disallow="pedestrian tram rail_urban rail rail_electric rail_fast ship" speed="36.11" length="26.55" width="3.50" shape="157.21,-69.33 158.84,-83.78 160.18,-95.71"/>
    </edge>
    <edge id=":57_5" function="internal">
        <lane id=":57_5_0" index="0" disallow="pedestrian tram rail_urban rail rail_electric rail_fast ship" speed="10.98" length="26.88" width="3.50" shape="157.21,-69.33 157.87,-73.05 158.64,-74.07 159.66,-74.85 160.80,-75.43 162.01,-75.86 164.51,-76.42 168.34,-76.83 173.48,-76.90 179.89,-76.57"/>
    </edge>
    <edge id=":58_0" function="internal">
        <lane id=":58_0_0" index="0" disallow="pedestrian tram rail_urban rail rail_electric rail_fast ship" speed="36.11" length="22.57" width="3.50" shape="242.90,-124.36 240.57,-124.57 238.27,-125.03 235.05,-126.07 228.11,-128.96 225.20,-129.94 223.29,-130.36 221.34,-130.57"/>
    </edge>
    <edge id=":58_1" function="internal">
        <lane id=":58_1_0" index="0" disallow="pedestrian tram rail_urban rail rail_electric rail_fast ship" speed="8.15" length="21.60" width="3.50" shape="242.90,-124.37 241.18,-124.45 239.42,-124.66 237.60,-125.08 235.74,-125.86 234.02,-127.30 233.00,-129.44 232.96,-131.68 233.52,-133.62 234.32,-135.29 235.25,-136.80 236.25,-138.20"/>
    </edge>
    <edge id=":58_2" function="internal">
        <lane id=":58_2_0" index="0" disallow="pedestrian tram rail_urban rail rail_electric rail_fast ship" speed="6.52" length="13.29" width="3.50" shape="239.04,-136.09 238.35,-135.11 237.71,-134.08 237.18,-132.99 236.83,-131.83 236.82,-130.62 237.33,-129.54 238.27,-128.79 239.39,-128.33 240.57,-128.07 241.78,-127.93 242.99,-127.86"/>
    </edge>
    <edge id=":58_3" function="internal">
        <lane id=":58_3_0" index="0" disallow="pedestrian tram rail_urban rail rail_electric rail_fast ship" speed="12.50" length="19.26" width="3.50" shape="239.04,-136.09 238.20,-135.12 237.25,-134.23 236.22,-133.47 235.10,-132.81 232.88,-131.84 230.56,-131.19 228.23,-130.79 224.78,-130.53 221.34,-130.57"/>
    </edge>
    <edge id=":58_4" function="internal">
        <lane id=":58_4_0" index="0" disallow="pedestrian tram rail_urban rail rail_electric rail_fast ship" speed="11.32" length="15.87" width="3.50" shape="221.51,-134.07 224.50,-134.02 227.47,-134.21 229.43,-134.52 231.35,-135.01 233.19,-135.75 234.06,-136.24 234.87,-136.81 235.61,-137.47 236.25,-138.20"/>
    </edge>
    <edge id=":58_5" function="internal">
        <lane id=":58_5_0" index="0" disallow="pedestrian tram rail_urban rail rail_electric rail_fast ship" speed="36.11" length="22.50" width="3.50" shape="221.51,-134.07 223.65,-133.84 225.74,-133.37 228.79,-132.35 235.70,-129.46 238.76,-128.47 240.86,-128.05 242.99,-127.86"/>
    </edge>
    <edge id=":59_0" function="internal">
        <lane id=":59_0_0" index="0" disallow="pedestrian tram rail_urban rail rail_electric rail_fast ship" speed="36.11" length="16.32" width="3.50" shape="259.28,-126.81 258.21,-126.67 248.61,-124.76 245.36,-124.41 243.18,-124.36"/>
    </edge>
    <edge id=":59_1" function="internal">
        <lane id=":59_1_0" index="0" disallow="pedestrian tram rail_urban rail rail_electric rail_fast ship" speed="11.74" length="16.37" width="3.50" shape="259.23,-127.93 257.49,-128.40 255.17,-129.32 252.97,-130.55 250.96,-132.06 249.18,-133.84 246.53,-137.50"/>
    </edge>
    <edge id=":59_2" function="internal">
        <lane id=":59_2_0" index="0" disallow="pedestrian tram rail_urban rail rail_electric rail_fast ship" speed="23.19" length="6.15" width="3.50" shape="249.40,-139.47 249.66,-139.09 249.88,-138.74 250.08,-138.42 250.26,-138.13 250.42,-137.86 250.57,-137.61 250.71,-137.38 250.85,-137.16 250.98,-136.95 251.12,-136.75 251.27,-136.55 251.43,-136.35 251.60,-136.15 251.80,-135.95 252.02,-135.74 252.27,-135.51 252.55,-135.27 252.87,-135.02 253.23,-134.74"/>
    </edge>
    <edge id=":59_3" function="internal">
        <lane id=":59_3_0" index="0" disallow="pedestrian tram rail_urban rail rail_electric rail_fast ship" speed="8.58" length="24.14" width="3.50" shape="249.40,-139.47 251.63,-136.07 252.58,-134.30 253.34,-132.43 253.79,-130.47 253.66,-128.48 252.70,-126.74 251.08,-125.57 249.19,-124.89 247.21,-124.53 245.20,-124.38 243.18,-124.36"/>
    </edge>
    <edge id=":59_4" function="internal">
        <lane id=":59_4_0" index="0" disallow="pedestrian tram rail_urban rail rail_electric rail_fast ship" speed="7.09" length="15.90" width="3.50" shape="243.22,-127.86 244.75,-127.87 246.21,-127.98 247.56,-128.22 248.71,-128.60 249.53,-129.14 249.93,-129.87 249.95,-130.84 249.66,-132.02 249.13,-133.28 248.45,-134.57 246.53,-137.50"/>
    </edge>
    <edge id=":59_5" function="internal">
        <lane id=":59_5_0" index="0" disallow="pedestrian tram rail_urban rail rail_electric rail_fast ship" speed="36.11" length="16.09" width="3.48" shape="243.26,-127.86 244.06,-127.86 244.87,-127.88 245.69,-127.94 246.52,-128.02 247.36,-128.12 248.21,-128.25 249.06,-128.39 249.92,-128.54 250.78,-128.71 251.64,-128.88 252.50,-129.05 253.36,-129.23 254.21,-129.41 255.06,-129.58 255.89,-129.75 256.72,-129.91 257.54,-130.06 258.34,-130.19 259.13,-130.30"/>
    </edge>
    <edge id=":61_0" function="internal">
        <lane id=":61_0_0" index="0" disallow="pedestrian tram rail_urban rail rail_electric rail_fast ship" speed="6.33" length="10.53" width="3.50" shape="247.53,-136.01 246.88,-136.90 246.19,-137.68 245.39,-138.36 244.47,-138.86 243.45,-139.07 242.41,-138.93 241.46,-138.49 240.62,-137.86 239.88,-137.12 239.21,-136.31"/>
    </edge>
    <edge id=":61_1" function="internal">
        <lane id=":61_1_0" index="0" disallow="pedestrian tram rail_urban rail rail_electric rail_fast ship" speed="16.17" length="17.65" width="3.50" shape="247.53,-136.01 245.70,-139.06 244.23,-142.25 243.48,-144.47 242.93,-146.75 242.60,-149.07 242.49,-151.41 242.52,-152.62"/>
    </edge>
    <edge id=":61_2" function="internal">
        <lane id=":61_2_0" index="0" disallow="pedestrian tram rail_urban rail rail_electric rail_fast ship" speed="14.93" length="15.38" width="3.50" shape="246.02,-152.45 245.99,-151.42 246.09,-149.37 246.38,-147.37 246.86,-145.39 247.51,-143.48 248.81,-140.66 250.42,-137.99"/>
    </edge>
    <edge id=":61_3" function="internal">
        <lane id=":61_3_0" index="0" disallow="pedestrian tram rail_urban rail rail_electric rail_fast ship" speed="17.14" length="17.78" width="3.50" shape="246.02,-152.45 245.76,-150.06 245.24,-147.75 244.50,-145.50 243.04,-142.27 241.25,-139.21 239.21,-136.31"/>
    </edge>
    <edge id=":61_4" function="internal">
        <lane id=":61_4_0" index="0" disallow="pedestrian tram rail_urban rail rail_electric rail_fast ship" speed="15.96" length="15.67" width="3.50" shape="236.43,-138.43 238.27,-141.05 239.88,-143.78 241.19,-146.65 241.84,-148.59 242.30,-150.57 242.52,-152.62"/>
    </edge>
    <edge id=":61_5" function="internal">
        <lane id=":61_5_0" index="0" disallow="pedestrian tram rail_urban rail rail_electric rail_fast ship" speed="7.98" length="17.38" width="3.50" shape="236.43,-138.43 237.42,-139.63 238.57,-140.77 239.95,-141.79 241.63,-142.55 243.56,-142.81 245.47,-142.43 247.10,-141.56 248.41,-140.46 249.49,-139.26 250.42,-137.99"/>
    </edge>
    <edge id=":8_0" function="internal">
        <lane id=":8_0_0" index="0" disallow="pedestrian tram rail_urban rail rail_electric rail_fast ship" speed="36.11" length="2.98" width="3.50" shape="159.53,-58.84 159.15,-55.88"/>
    </edge>

    <edge id="76953" from="46" to="59" priority="3" type="highway.residential" spreadType="center" length="14.94" shape="274.19,-126.79 249.59,-128.87">
        <lane id="76953_0" index="0" disallow="pedestrian tram rail_urban rail rail_electric rail_fast ship" speed="36.11" length="14.94" width="3.50" customShape="1" shape="274.19,-126.79 269.19,-127.00 266.94,-127.09 259.26,-127.41"/>
    </edge>
    <edge id="77015" from="47" to="61" priority="3" type="highway.residential" spreadType="center" length="24.79" shape="247.24,-177.18 245.42,-142.13">
        <lane id="77015_0" index="0" disallow="pedestrian tram rail_urban rail rail_electric rail_fast ship" speed="36.11" length="24.79" width="3.50" customShape="1" shape="247.24,-177.18 246.63,-164.79 246.02,-152.42"/>
    </edge>
    <edge id="77016" from="61" to="42" priority="3" type="highway.residential" spreadType="center" length="24.77" shape="241.93,-142.31 243.75,-177.36">
        <lane id="77016_0" index="0" disallow="pedestrian tram rail_urban rail rail_electric rail_fast ship" speed="36.11" length="24.77" width="3.50" customShape="1" shape="242.52,-152.62 243.13,-164.97 243.75,-177.36"/>
    </edge>
    <edge id="77019" from="50" to="56" priority="3" type="highway.residential" spreadType="center" length="19.98" shape="114.19,-41.61 147.81,-30.28">
        <lane id="77019_0" index="0" disallow="pedestrian tram rail_urban rail rail_electric rail_fast ship" speed="36.11" length="19.98" width="3.50" customShape="1" shape="115.52,-41.17 117.39,-40.54 122.55,-38.48 127.58,-36.11 133.40,-32.97 133.53,-32.90 133.64,-32.84"/>
    </edge>
    <edge id="77053" from="53" to="57" priority="3" type="highway.residential" spreadType="center" length="10.12" shape="155.88,-57.80 165.39,-81.39">
        <lane id="77053_0" index="0" disallow="pedestrian tram rail_urban rail rail_electric rail_fast ship" speed="36.11" length="10.12" width="3.49" customShape="1" shape="156.05,-59.28 156.67,-64.68 157.21,-69.33"/>
    </edge>
    <edge id="77055" from="55" to="57" priority="3" type="highway.residential" spreadType="center" length="20.52" shape="174.71,-134.65 168.69,-80.38">
        <lane id="77055_0" index="0" disallow="pedestrian tram rail_urban rail rail_electric rail_fast ship" speed="36.11" length="20.52" width="3.50" customShape="1" shape="165.93,-115.71 164.80,-105.54 163.65,-95.32"/>
    </edge>
    <edge id="77056" from="57" to="55" priority="3" type="highway.residential" spreadType="center" length="20.55" shape="165.21,-80.77 171.23,-135.03">
        <lane id="77056_0" index="0" disallow="pedestrian tram rail_urban rail rail_electric rail_fast ship" speed="36.11" length="20.55" width="3.50" customShape="1" shape="160.18,-95.71 161.32,-105.93 162.46,-116.13"/>
    </edge>
    <edge id="77058" from="30" to="55" priority="3" type="highway.residential" spreadType="center" length="60.80" shape="175.22,-214.75 174.72,-134.79">
        <lane id="77058_0" index="0" disallow="pedestrian tram rail_urban rail rail_electric rail_fast ship" speed="36.11" length="60.80" width="3.50" customShape="1" shape="175.22,-214.75 175.67,-211.21 175.99,-206.63 175.91,-200.50 175.43,-192.86 174.44,-183.72 171.85,-166.04 170.28,-154.35"/>
    </edge>
    <edge id="77059" from="55" to="17" priority="3" type="highway.residential" spreadType="center" length="59.87" shape="171.22,-134.81 171.75,-214.29">
        <lane id="77059_0" index="0" disallow="pedestrian tram rail_urban rail rail_electric rail_fast ship" speed="36.11" length="59.87" width="3.50" customShape="1" shape="166.81,-154.82 168.37,-166.40 170.94,-183.93 171.93,-192.93 172.40,-200.43 172.50,-206.40 172.19,-210.82 171.75,-214.29"/>
    </edge>
    <edge id="77122" from="8" to="56" priority="3" type="highway.residential" spreadType="center" length="16.22" shape="159.36,-57.36 148.78,-27.97">
        <lane id="77122_0" index="0" disallow="pedestrian tram rail_urban rail rail_electric rail_fast ship" speed="36.11" length="16.22" width="3.50" customShape="1" shape="159.15,-55.88 159.06,-55.21 158.09,-49.91 157.15,-46.25 156.02,-43.22 154.60,-40.42"/>
    </edge>
    <edge id="77123" from="56" to="53" priority="3" type="highway.residential" spreadType="center" length="15.01" shape="145.49,-29.15 155.88,-57.80">
        <lane id="77123_0" index="0" disallow="pedestrian tram rail_urban rail rail_electric rail_fast ship" speed="36.11" length="15.01" width="3.50" customShape="1" shape="151.48,-42.01 152.84,-44.67 153.84,-47.41 154.70,-50.78 155.61,-55.79 155.68,-56.32"/>
    </edge>
    <edge id="77179" from="59" to="61" priority="3" type="highway.residential" spreadType="center" length="0.20" shape="248.31,-129.78 242.04,-141.70">
        <lane id="77179_0" index="0" disallow="pedestrian tram rail_urban rail rail_electric rail_fast ship" speed="36.11" length="0.20" width="3.50" customShape="1" shape="246.53,-137.50 246.42,-137.67"/>
    </edge>
    <edge id="77180" from="61" to="59" priority="3" type="highway.residential" spreadType="center" length="0.19" shape="245.11,-143.31 251.41,-131.42">
        <lane id="77180_0" index="0" disallow="pedestrian tram rail_urban rail rail_electric rail_fast ship" speed="36.11" length="0.19" width="3.50" customShape="1" shape="249.29,-139.63 249.40,-139.47"/>
    </edge>
    <edge id="77182" from="58" to="59" priority="3" type="highway.residential" spreadType="center" length="0.27" shape="234.14,-133.60 250.19,-132.32">
        <lane id="77182_0" index="0" disallow="pedestrian tram rail_urban rail rail_electric rail_fast ship" speed="36.11" length="0.27" width="3.50" customShape="1" shape="242.99,-127.86 243.26,-127.86"/>
    </edge>
    <edge id="77183" from="59" to="58" priority="3" type="highway.residential" spreadType="center" length="0.32" shape="249.91,-128.85 233.86,-130.11">
        <lane id="77183_0" index="0" disallow="pedestrian tram rail_urban rail rail_electric rail_fast ship" speed="36.11" length="0.32" width="3.50" customShape="1" shape="243.18,-124.36 243.05,-124.36 242.86,-124.37"/>
    </edge>
    <edge id="77185" from="61" to="58" priority="3" type="highway.residential" spreadType="center" length="0.30" shape="245.10,-141.28 235.28,-130.67">
        <lane id="77185_0" index="0" disallow="pedestrian tram rail_urban rail rail_electric rail_fast ship" speed="36.11" length="0.30" width="3.50" customShape="1" shape="239.21,-136.31 239.13,-136.21 239.03,-136.07"/>
    </edge>
    <edge id="77186" from="58" to="61" priority="3" type="highway.residential" spreadType="center" length="0.29" shape="232.72,-133.05 242.55,-143.64">
        <lane id="77186_0" index="0" disallow="pedestrian tram rail_urban rail rail_electric rail_fast ship" speed="36.11" length="0.29" width="3.50" customShape="1" shape="236.25,-138.20 236.34,-138.32 236.43,-138.43"/>
    </edge>
    <edge id="77332" from="26" to="27" priority="3" type="highway.residential" spreadType="center" length="70.00">
        <lane id="77332_0" index="0" disallow="pedestrian tram rail_urban rail rail_electric rail_fast ship" speed="36.11" length="70.00" width="3.50" customShape="1" shape="113.17,-38.26 109.77,-39.16 105.34,-39.97 80.45,-43.02 62.07,-45.59 43.84,-47.63"/>
    </edge>
    <edge id="77333" from="51" to="50" priority="3" type="highway.residential" spreadType="center" length="68.60">
        <lane id="77333_0" index="0" disallow="pedestrian tram rail_urban rail rail_electric rail_fast ship" speed="36.11" length="68.60" width="3.50" customShape="1" shape="44.86,-51.04 62.71,-49.04 81.13,-46.47 106.10,-43.39 110.66,-42.55 112.83,-41.97"/>
    </edge>
    <edge id="77453" from="57" to="7" priority="3" type="highway.residential" spreadType="center" length="70.00" shape="167.13,-82.37 249.73,-72.18">
        <lane id="77453_0" index="0" disallow="pedestrian tram rail_urban rail rail_electric rail_fast ship" speed="36.11" length="70.00" width="3.50" customShape="1" shape="179.89,-76.57 216.86,-73.56 232.38,-72.62 245.40,-72.19 249.73,-72.18"/>
    </edge>
    <edge id="77454" from="13" to="57" priority="3" type="highway.residential" spreadType="center" length="70.01" shape="249.45,-68.68 166.70,-78.90">
        <lane id="77454_0" index="0" disallow="pedestrian tram rail_urban rail rail_electric rail_fast ship" speed="36.11" length="70.01" width="3.50" customShape="1" shape="249.45,-68.68 245.45,-68.68 232.33,-69.12 216.72,-70.06 179.60,-73.08"/>
    </edge>
    <edge id="77542" from="29" to="56" priority="3" type="highway.residential" spreadType="center" length="32.00" shape="173.12,15.30 145.66,-27.76">
        <lane id="77542_0" index="0" disallow="pedestrian tram rail_urban rail rail_electric rail_fast ship" speed="36.11" length="32.00" width="3.50" customShape="1" shape="172.52,13.93 172.12,13.01 169.72,8.06 166.38,1.91 163.72,-2.31 161.03,-5.92 159.01,-8.13 154.55,-12.17"/>
    </edge>
    <edge id="77543" from="56" to="22" priority="3" type="highway.residential" spreadType="center" length="33.52" shape="148.61,-29.64 176.34,13.92">