<routes>
	<vehicle depart="0.1" departLane="0" departPos="35.06932943878021" departSpeed="0.60067489" id="324" type="passenger">
		<route edges=":107_8 3563"/>
	</vehicle>
	<vehicle depart="0.1" departLane="0" departPos="83.59977254538795" departSpeed="1.516013" id="338" type="passenger">
		<route edges="3841 3838"/>
	</vehicle>
	<vehicle depart="0.1" departLane="0" departPos="72.78002794650797" departSpeed="1.911951" id="341" type="passenger">
		<route edges="3560 3563"/>
	</vehicle>
	<vehicle depart="0.1" departLane="0" departPos="63.595581379549024" departSpeed="2.6791752" id="360" type="passenger">
		<route edges="3560 3842"/>
	</vehicle>
	<vehicle depart="0.1" departLane="0" departPos="26.56046110978558" departSpeed="4.1150028" id="3104" type="passenger">
		<route edges=":107_11 3838"/>
	</vehicle>
	<vehicle depart="0.1" departLane="0" departPos="67.08789869607044" departSpeed="3.832457" id="3111" type="passenger">
		<route edges="3562 3559"/>
	</vehicle>
	<vehicle depart="0.1" departLane="0" departPos="45.35427259994579" departSpeed="2.6264379" id="3118" type="passenger">
		<route edges="3562 3842"/>
	</vehicle>
	<vehicle depart="0.1" departLane="0" departPos="33.165151170505226" departSpeed="4.3176979" id="3126" type="passenger">
		<route edges="3562 3842"/>
	</vehicle>
	<vehicle depart="0.1" departLane="0" departPos="23.998602033189393" departSpeed="2.0774729" id="357" type="truck">
		<route edges=":107_2 3559"/>
	</vehicle>
</routes>
