<!-- generated on Tue Feb  9 22:05:39 2021 by Eclipse SUMO netconvert Version 1.8.0
<configuration xmlns:xsi="http://www.w3.org/2001/XMLSchema-instance" xsi:noNamespaceSchemaLocation="http://sumo.dlr.de/xsd/netconvertConfiguration.xsd">

    <input>
        <node-files value="./converted_scenarios/scenario-factory/ARG_Carcarana-1_8_I-1-1/ARG_Carcarana-1_8_I-1-1.nod.xml"/>
        <edge-files value="./converted_scenarios/scenario-factory/ARG_Carcarana-1_8_I-1-1/ARG_Carcarana-1_8_I-1-1.edg.xml"/>
        <connection-files value="./converted_scenarios/scenario-factory/ARG_Carcarana-1_8_I-1-1/ARG_Carcarana-1_8_I-1-1.con.xml"/>
        <tllogic-files value="./converted_scenarios/scenario-factory/ARG_Carcarana-1_8_I-1-1/ARG_Carcarana-1_8_I-1-1.tll.xml"/>
        <type-files value="/home/zen/commonroad-interactive-benchmarks/install/commonroad-map-tool/crmapconverter/sumo_map/templates/DEU.typ.xml"/>
    </input>

    <output>
        <output-file value="./converted_scenarios/scenario-factory/ARG_Carcarana-1_8_I-1-1/ARG_Carcarana-1_8_I-1-1.net.xml"/>
    </output>

    <processing>
        <geometry.remove.keep-edges.explicit value="true"/>
        <geometry.avoid-overlap value="true"/>
        <offset.disable-normalization value="true"/>
    </processing>

    <junctions>
        <no-turnarounds value="true"/>
        <junctions.internal-link-detail value="20"/>
    </junctions>

    <report>
        <aggregate-warnings value="5"/>
    </report>

    <random_number>
        <seed value="1234"/>
    </random_number>

</configuration>
--><net xmlns:xsi="http://www.w3.org/2001/XMLSchema-instance" version="1.6" junctionCornerDetail="5" junctionLinkDetail="20" limitTurnSpeed="5.50" xsi:noNamespaceSchemaLocation="http://sumo.dlr.de/xsd/net_file.xsd">

    <location netOffset="0.00,0.00" convBoundary="-288.17,-335.40,182.09,36.80" origBoundary="-288.17,-335.40,182.09,36.80" projParameter="!"/>

    <type id="highway.bridleway" priority="1" speed="2.78" allow="pedestrian" oneway="1" width="2.00"/>
    <type id="highway.bus_guideway" priority="1" speed="27.78" allow="bus" oneway="1"/>
    <type id="highway.cycleway" priority="1" speed="8.33" allow="bicycle" oneway="0" width="1.00"/>
    <type id="highway.footway" priority="1" speed="2.78" allow="pedestrian" oneway="1" width="2.00"/>
    <type id="highway.ford" priority="1" speed="2.78" allow="army" oneway="0"/>
    <type id="highway.living_street" priority="2" speed="2.78" disallow="tram rail_urban rail rail_electric rail_fast ship" oneway="0"/>
    <type id="highway.motorway" priority="14" speed="39.44" allow="private emergency authority army vip passenger hov taxi bus coach delivery truck trailer motorcycle evehicle custom1 custom2" oneway="1"/>
    <type id="highway.motorway_link" priority="9" speed="22.22" allow="private emergency authority army vip passenger hov taxi bus coach delivery truck trailer motorcycle evehicle custom1 custom2" oneway="1"/>
    <type id="highway.path" priority="1" speed="2.78" allow="pedestrian bicycle" oneway="0" width="2.00"/>
    <type id="highway.pedestrian" priority="1" speed="2.78" allow="pedestrian" oneway="1" width="2.00"/>
    <type id="highway.primary" priority="12" speed="27.78" disallow="pedestrian tram rail_urban rail rail_electric rail_fast ship" oneway="0"/>
    <type id="highway.primary_link" priority="7" speed="22.22" disallow="pedestrian tram rail_urban rail rail_electric rail_fast ship" oneway="0"/>
    <type id="highway.raceway" priority="15" speed="83.33" allow="vip" oneway="0"/>
    <type id="highway.residential" priority="3" speed="13.89" disallow="pedestrian tram rail_urban rail rail_electric rail_fast ship" oneway="0"/>
    <type id="highway.secondary" priority="11" speed="27.78" disallow="pedestrian tram rail_urban rail rail_electric rail_fast ship" oneway="0"/>
    <type id="highway.secondary_link" priority="6" speed="22.22" disallow="pedestrian tram rail_urban rail rail_electric rail_fast ship" oneway="0"/>
    <type id="highway.service" priority="1" speed="5.56" allow="pedestrian delivery bicycle" oneway="0"/>
    <type id="highway.stairs" priority="1" speed="1.39" allow="pedestrian" oneway="1" width="2.00"/>
    <type id="highway.step" priority="1" speed="1.39" allow="pedestrian" oneway="1" width="2.00"/>
    <type id="highway.steps" priority="1" speed="1.39" allow="pedestrian" oneway="1" width="2.00"/>
    <type id="highway.tertiary" priority="10" speed="22.22" disallow="pedestrian tram rail_urban rail rail_electric rail_fast ship" oneway="0"/>
    <type id="highway.tertiary_link" priority="5" speed="22.22" disallow="pedestrian tram rail_urban rail rail_electric rail_fast ship" oneway="0"/>
    <type id="highway.track" priority="1" speed="5.56" allow="pedestrian motorcycle moped bicycle" oneway="0"/>
    <type id="highway.trunk" priority="13" speed="27.78" disallow="pedestrian bicycle tram rail_urban rail rail_electric rail_fast ship" oneway="0"/>
    <type id="highway.trunk_link" priority="8" speed="22.22" disallow="pedestrian bicycle tram rail_urban rail rail_electric rail_fast ship" oneway="0"/>
    <type id="highway.unclassified" priority="4" speed="13.89" disallow="pedestrian tram rail_urban rail rail_electric rail_fast ship" oneway="0"/>
    <type id="highway.unsurfaced" priority="1" speed="8.33" disallow="tram rail_urban rail rail_electric rail_fast ship" oneway="0"/>
    <type id="railway.highspeed" priority="21" speed="69.44" allow="rail_fast" oneway="1"/>
    <type id="railway.light_rail" priority="19" speed="27.78" allow="rail_urban" oneway="1"/>
    <type id="railway.preserved" priority="16" speed="27.78" allow="rail" oneway="1"/>
    <type id="railway.rail" priority="20" speed="44.44" allow="rail" oneway="1"/>
    <type id="railway.subway" priority="18" speed="27.78" allow="rail_urban" oneway="1"/>
    <type id="railway.tram" priority="17" speed="13.89" allow="tram" oneway="1"/>

    <edge id=":101_0" function="internal">
        <lane id=":101_0_0" index="0" disallow="pedestrian tram rail_urban rail rail_electric rail_fast ship" speed="11.19" length="28.70" width="3.50" shape="-46.54,-66.91 -47.08,-69.15 -47.78,-71.31 -48.66,-73.37 -49.74,-75.29 -51.07,-77.05 -51.79,-77.79 -52.58,-78.50 -53.43,-79.12 -54.33,-79.67 -55.28,-80.14 -56.27,-80.53 -57.27,-80.83 -59.44,-81.24 -61.65,-81.36 -63.89,-81.24 -67.29,-80.71"/>
    </edge>
    <edge id=":101_1" function="internal">
        <lane id=":101_1_0" index="0" disallow="pedestrian tram rail_urban rail rail_electric rail_fast ship" speed="36.11" length="38.85" width="3.50" shape="-46.54,-66.91 -50.43,-85.94 -54.32,-104.97"/>
    </edge>
    <edge id=":101_2" function="internal">
        <lane id=":101_2_0" index="0" disallow="pedestrian tram rail_urban rail rail_electric rail_fast ship" speed="12.24" length="34.44" width="3.50" shape="-46.54,-66.91 -46.97,-69.44 -47.22,-72.01 -47.23,-74.63 -46.93,-77.27 -46.28,-79.85 -45.79,-81.15 -45.20,-82.39 -44.50,-83.57 -43.70,-84.68 -42.81,-85.72 -41.84,-86.68 -40.78,-87.57 -38.58,-89.03 -36.22,-90.22 -33.78,-91.14 -30.07,-92.13"/>
    </edge>
    <edge id=":101_3" function="internal">
        <lane id=":101_3_0" index="0" disallow="pedestrian tram rail_urban rail rail_electric rail_fast ship" speed="11.24" length="28.86" width="3.50" shape="-29.35,-88.71 -32.56,-87.85 -34.64,-87.06 -36.63,-86.07 -38.47,-84.84 -39.32,-84.12 -40.11,-83.34 -40.84,-82.50 -41.48,-81.60 -42.05,-80.64 -42.53,-79.64 -42.92,-78.60 -43.47,-76.45 -43.71,-74.25 -43.70,-72.02 -43.49,-69.81 -43.11,-67.63"/>
    </edge>
    <edge id=":101_4" function="internal">
        <lane id=":101_4_0" index="0" disallow="pedestrian tram rail_urban rail rail_electric rail_fast ship" speed="36.11" length="38.77" width="3.50" shape="-29.35,-88.71 -48.32,-84.71 -67.29,-80.71"/>
    </edge>
    <edge id=":101_5" function="internal">
        <lane id=":101_5_0" index="0" disallow="pedestrian tram rail_urban rail rail_electric rail_fast ship" speed="12.15" length="34.26" width="3.50" shape="-29.35,-88.71 -33.25,-88.09 -35.88,-87.94 -38.52,-88.06 -41.11,-88.50 -42.38,-88.86 -43.62,-89.32 -44.81,-89.88 -45.95,-90.54 -47.02,-91.31 -48.02,-92.16 -48.95,-93.10 -49.80,-94.11 -51.26,-96.30 -52.42,-98.67 -53.34,-101.14 -54.32,-104.97"/>
    </edge>
    <edge id=":101_6" function="internal">
        <lane id=":101_6_0" index="0" disallow="pedestrian tram rail_urban rail rail_electric rail_fast ship" speed="11.15" length="28.65" width="3.50" shape="-50.89,-105.66 -50.04,-102.32 -49.26,-100.23 -48.28,-98.24 -47.06,-96.41 -46.39,-95.61 -45.64,-94.86 -44.84,-94.17 -43.98,-93.56 -43.07,-93.04 -42.11,-92.59 -41.11,-92.22 -40.11,-91.93 -37.93,-91.56 -35.71,-91.46 -33.47,-91.59 -30.07,-92.13"/>
    </edge>
    <edge id=":101_7" function="internal">
        <lane id=":101_7_0" index="0" disallow="pedestrian tram rail_urban rail rail_electric rail_fast ship" speed="36.11" length="38.82" width="3.50" shape="-50.89,-105.66 -47.00,-86.64 -43.11,-67.63"/>
    </edge>
    <edge id=":101_8" function="internal">
        <lane id=":101_8_0" index="0" disallow="pedestrian tram rail_urban rail rail_electric rail_fast ship" speed="12.21" length="34.09" width="3.50" shape="-50.89,-105.66 -50.47,-103.15 -50.25,-100.60 -50.26,-98.01 -50.57,-95.40 -51.22,-92.86 -51.71,-91.57 -52.30,-90.35 -53.00,-89.18 -53.79,-88.08 -54.68,-87.05 -55.64,-86.11 -56.69,-85.23 -58.86,-83.78 -61.20,-82.61 -63.62,-81.69 -67.29,-80.71"/>
    </edge>
    <edge id=":101_9" function="internal">
        <lane id=":101_9_0" index="0" disallow="pedestrian tram rail_urban rail rail_electric rail_fast ship" speed="11.21" length="28.53" width="3.50" shape="-68.01,-84.14 -64.83,-84.98 -62.78,-85.76 -60.81,-86.74 -58.99,-87.96 -58.15,-88.67 -57.37,-89.44 -56.65,-90.27 -56.01,-91.16 -55.45,-92.10 -54.97,-93.09 -54.58,-94.12 -54.03,-96.24 -53.77,-98.42 -53.77,-100.62 -53.96,-102.80 -54.32,-104.97"/>
    </edge>
    <edge id=":101_10" function="internal">
        <lane id=":101_10_0" index="0" disallow="pedestrian tram rail_urban rail rail_electric rail_fast ship" speed="36.11" length="38.77" width="3.50" shape="-68.01,-84.14 -49.04,-88.13 -30.07,-92.13"/>
    </edge>
    <edge id=":101_11" function="internal">
        <lane id=":101_11_0" index="0" disallow="pedestrian tram rail_urban rail rail_electric rail_fast ship" speed="12.19" length="34.29" width="3.50" shape="-68.01,-84.14 -64.10,-84.75 -61.47,-84.88 -58.83,-84.74 -56.24,-84.26 -54.98,-83.88 -53.75,-83.40 -52.57,-82.81 -51.44,-82.13 -50.38,-81.35 -49.39,-80.47 -48.47,-79.52 -46.88,-77.42 -45.58,-75.13 -44.55,-72.70 -43.73,-70.19 -43.11,-67.63"/>
    </edge>
    <edge id=":102_0" function="internal">
        <lane id=":102_0_0" index="0" disallow="pedestrian tram rail_urban rail rail_electric rail_fast ship" speed="36.11" length="38.33" width="3.50" shape="-61.07,-138.60 -67.38,-169.06 -68.90,-176.12"/>
    </edge>
    <edge id=":102_1" function="internal">
        <lane id=":102_1_0" index="0" disallow="pedestrian tram rail_urban rail rail_electric rail_fast ship" speed="12.19" length="34.00" width="3.50" shape="-61.07,-138.60 -61.65,-142.51 -61.78,-145.12 -61.64,-147.73 -61.18,-150.30 -60.82,-151.56 -60.36,-152.78 -59.80,-153.96 -59.15,-155.09 -58.39,-156.16 -57.55,-157.16 -56.63,-158.08 -54.58,-159.70 -52.32,-161.02 -49.93,-162.07 -47.45,-162.89 -44.91,-163.52"/>
    </edge>
    <edge id=":102_2" function="internal">
        <lane id=":102_2_0" index="0" disallow="pedestrian tram rail_urban rail rail_electric rail_fast ship" speed="11.19" length="28.45" width="3.50" shape="-44.19,-160.09 -46.39,-159.55 -48.52,-158.85 -50.55,-157.96 -52.43,-156.86 -54.13,-155.51 -54.85,-154.79 -55.52,-153.98 -56.13,-153.13 -56.65,-152.22 -57.10,-151.27 -57.47,-150.28 -57.76,-149.28 -58.14,-147.12 -58.26,-144.92 -58.15,-142.70 -57.64,-139.29"/>
    </edge>
    <edge id=":102_3" function="internal">
        <lane id=":102_3_0" index="0" disallow="pedestrian tram rail_urban rail rail_electric rail_fast ship" speed="12.12" length="33.64" width="3.50" shape="-44.19,-160.09 -46.66,-159.66 -49.17,-159.42 -51.73,-159.41 -54.32,-159.70 -56.84,-160.33 -58.11,-160.81 -59.32,-161.39 -60.48,-162.07 -61.57,-162.85 -62.59,-163.72 -63.52,-164.67 -64.40,-165.70 -65.84,-167.85 -67.00,-170.14 -67.92,-172.53 -68.90,-176.12"/>
    </edge>
    <edge id=":102_4" function="internal">
        <lane id=":102_4_0" index="0" disallow="pedestrian tram rail_urban rail rail_electric rail_fast ship" speed="11.11" length="28.11" width="3.50" shape="-65.48,-176.89 -64.63,-173.76 -63.86,-171.74 -62.88,-169.81 -61.67,-168.02 -60.98,-167.19 -60.22,-166.42 -59.39,-165.72 -58.52,-165.09 -57.58,-164.54 -56.61,-164.08 -55.60,-163.69 -53.50,-163.16 -51.35,-162.93 -49.19,-162.94 -47.04,-163.15 -44.91,-163.52"/>
    </edge>
    <edge id=":102_5" function="internal">
        <lane id=":102_5_0" index="0" disallow="pedestrian tram rail_urban rail rail_electric rail_fast ship" speed="36.11" length="38.41" width="3.50" shape="-65.48,-176.89 -63.96,-169.79 -57.64,-139.29"/>
    </edge>
    <edge id=":103_0" function="internal">
        <lane id=":103_0_0" index="0" disallow="pedestrian tram rail_urban rail rail_electric rail_fast ship" speed="11.17" length="28.60" width="3.50" shape="67.13,-165.61 66.29,-168.79 65.51,-170.85 64.52,-172.81 63.29,-174.64 62.57,-175.47 61.80,-176.25 60.95,-176.96 60.05,-177.59 59.10,-178.14 58.10,-178.61 57.07,-178.98 54.93,-179.50 52.74,-179.72 50.54,-179.70 48.35,-179.49 46.18,-179.10"/>
    </edge>
    <edge id=":103_1" function="internal">
        <lane id=":103_1_0" index="0" disallow="pedestrian tram rail_urban rail rail_electric rail_fast ship" speed="36.11" length="38.84" width="3.50" shape="67.13,-165.61 63.19,-184.61 59.24,-203.64"/>
    </edge>
    <edge id=":103_2" function="internal">
        <lane id=":103_2_0" index="0" disallow="pedestrian tram rail_urban rail rail_electric rail_fast ship" speed="12.17" length="34.03" width="3.50" shape="67.13,-165.61 66.70,-168.09 66.46,-170.64 66.46,-173.23 66.75,-175.83 67.39,-178.38 67.88,-179.67 68.47,-180.89 69.16,-182.06 69.95,-183.16 70.83,-184.19 71.79,-185.13 72.84,-186.01 75.01,-187.46 77.34,-188.63 79.76,-189.54 83.43,-190.51"/>
    </edge>
    <edge id=":103_3" function="internal">
        <lane id=":103_3_0" index="0" disallow="pedestrian tram rail_urban rail rail_electric rail_fast ship" speed="11.16" length="28.45" width="3.50" shape="84.15,-187.09 80.97,-186.25 78.92,-185.47 76.97,-184.49 75.15,-183.28 74.31,-182.57 73.53,-181.81 72.81,-180.98 72.17,-180.09 71.62,-179.15 71.14,-178.16 70.75,-177.13 70.21,-175.01 69.97,-172.84 69.98,-170.65 70.19,-168.47 70.55,-166.33"/>
    </edge>
    <edge id=":103_4" function="internal">
        <lane id=":103_4_0" index="0" disallow="pedestrian tram rail_urban rail rail_electric rail_fast ship" speed="36.11" length="38.80" width="3.50" shape="84.15,-187.09 65.17,-183.10 46.18,-179.10"/>
    </edge>
    <edge id=":103_5" function="internal">
        <lane id=":103_5_0" index="0" disallow="pedestrian tram rail_urban rail rail_electric rail_fast ship" speed="12.20" length="34.34" width="3.50" shape="84.15,-187.09 80.24,-186.48 77.60,-186.35 74.96,-186.49 72.37,-186.97 71.11,-187.35 69.88,-187.83 68.69,-188.42 67.57,-189.10 66.50,-189.89 65.51,-190.76 64.60,-191.71 63.01,-193.81 61.71,-196.11 60.67,-198.54 59.86,-201.05 59.24,-203.64"/>
    </edge>
    <edge id=":103_6" function="internal">
        <lane id=":103_6_0" index="0" disallow="pedestrian tram rail_urban rail rail_electric rail_fast ship" speed="11.19" length="28.74" width="3.50" shape="62.66,-204.35 63.21,-202.09 63.91,-199.93 64.78,-197.86 65.87,-195.94 67.20,-194.19 67.92,-193.44 68.71,-192.73 69.56,-192.11 70.46,-191.56 71.41,-191.09 72.40,-190.70 73.40,-190.39 75.57,-189.99 77.79,-189.87 80.02,-189.98 83.43,-190.51"/>
    </edge>
    <edge id=":103_7" function="internal">
        <lane id=":103_7_0" index="0" disallow="pedestrian tram rail_urban rail rail_electric rail_fast ship" speed="36.11" length="38.83" width="3.50" shape="62.66,-204.35 66.61,-185.32 70.55,-166.33"/>
    </edge>
    <edge id=":103_8" function="internal">
        <lane id=":103_8_0" index="0" disallow="pedestrian tram rail_urban rail rail_electric rail_fast ship" speed="12.26" length="34.57" width="3.50" shape="62.67,-204.35 63.28,-200.39 63.41,-197.73 63.27,-195.08 62.81,-192.47 62.44,-191.19 61.96,-189.95 61.39,-188.75 60.71,-187.60 59.94,-186.53 59.07,-185.52 58.12,-184.59 56.03,-182.96 53.73,-181.63 51.29,-180.57 48.76,-179.74 46.18,-179.10"/>
    </edge>
    <edge id=":103_9" function="internal">
        <lane id=":103_9_0" index="0" disallow="pedestrian tram rail_urban rail rail_electric rail_fast ship" speed="11.27" length="29.00" width="3.50" shape="45.46,-182.53 47.71,-183.08 49.89,-183.79 51.96,-184.69 53.88,-185.80 55.63,-187.16 56.38,-187.90 57.07,-188.71 57.70,-189.58 58.24,-190.49 58.70,-191.46 59.08,-192.47 59.38,-193.48 59.78,-195.68 59.89,-197.92 59.77,-200.18 59.24,-203.64"/>
    </edge>
    <edge id=":103_10" function="internal">
        <lane id=":103_10_0" index="0" disallow="pedestrian tram rail_urban rail rail_electric rail_fast ship" speed="36.11" length="38.80" width="3.50" shape="45.46,-182.53 64.44,-186.52 83.43,-190.51"/>
    </edge>
    <edge id=":103_11" function="internal">
        <lane id=":103_11_0" index="0" disallow="pedestrian tram rail_urban rail rail_electric rail_fast ship" speed="12.17" length="34.18" width="3.50" shape="45.46,-182.53 47.97,-182.97 50.52,-183.22 53.12,-183.24 55.74,-182.97 58.30,-182.35 59.60,-181.88 60.83,-181.30 62.01,-180.62 63.13,-179.83 64.17,-178.96 65.13,-178.00 66.02,-176.95 67.48,-174.77 68.66,-172.43 69.58,-170.00 70.55,-166.33"/>
    </edge>
    <edge id=":104_0" function="internal">
        <lane id=":104_0_0" index="0" disallow="pedestrian tram rail_urban rail rail_electric rail_fast ship" speed="11.29" length="29.05" width="3.50" shape="-74.27,-200.91 -74.83,-203.15 -75.56,-205.33 -76.47,-207.40 -77.59,-209.33 -78.96,-211.08 -79.70,-211.82 -80.51,-212.52 -81.38,-213.14 -82.31,-213.68 -83.27,-214.15 -84.28,-214.53 -85.30,-214.83 -87.50,-215.22 -89.74,-215.33 -92.01,-215.21 -95.47,-214.66"/>
    </edge>
    <edge id=":104_1" function="internal">
        <lane id=":104_1_0" index="0" disallow="pedestrian tram rail_urban rail rail_electric rail_fast ship" speed="36.11" length="38.84" width="3.50" shape="-74.27,-200.91 -78.30,-219.90 -82.33,-238.90"/>
    </edge>
    <edge id=":104_2" function="internal">
        <lane id=":104_2_0" index="0" disallow="pedestrian tram rail_urban rail rail_electric rail_fast ship" speed="12.16" length="34.18" width="3.50" shape="-74.27,-200.91 -74.72,-203.41 -74.99,-205.96 -75.03,-208.55 -74.77,-211.17 -74.17,-213.74 -73.71,-215.04 -73.14,-216.28 -72.47,-217.47 -71.69,-218.59 -70.81,-219.63 -69.86,-220.60 -68.81,-221.49 -66.64,-222.97 -64.30,-224.16 -61.87,-225.09 -58.21,-226.06"/>
    </edge>
    <edge id=":104_3" function="internal">
        <lane id=":104_3_0" index="0" disallow="pedestrian tram rail_urban rail rail_electric rail_fast ship" speed="11.15" length="28.58" width="3.50" shape="-57.48,-222.64 -60.66,-221.79 -62.71,-221.01 -64.67,-220.01 -66.49,-218.77 -67.32,-218.06 -68.10,-217.27 -68.80,-216.43 -69.43,-215.52 -69.97,-214.57 -70.43,-213.57 -70.80,-212.53 -71.30,-210.39 -71.51,-208.20 -71.47,-206.00 -71.24,-203.81 -70.84,-201.65"/>
    </edge>
    <edge id=":104_4" function="internal">
        <lane id=":104_4_0" index="0" disallow="pedestrian tram rail_urban rail rail_electric rail_fast ship" speed="36.11" length="38.82" width="3.50" shape="-57.48,-222.64 -76.46,-218.66 -95.47,-214.66"/>
    </edge>
    <edge id=":104_5" function="internal">
        <lane id=":104_5_0" index="0" disallow="pedestrian tram rail_urban rail rail_electric rail_fast ship" speed="12.14" length="33.98" width="3.50" shape="-57.48,-222.64 -59.96,-222.21 -62.50,-221.96 -65.08,-221.95 -67.69,-222.24 -70.23,-222.87 -71.52,-223.36 -72.74,-223.95 -73.91,-224.64 -75.01,-225.43 -76.04,-226.31 -76.98,-227.27 -77.85,-228.32 -79.30,-230.49 -80.46,-232.82 -81.37,-235.24 -82.33,-238.90"/>
    </edge>
    <edge id=":104_6" function="internal">
        <lane id=":104_6_0" index="0" disallow="pedestrian tram rail_urban rail rail_electric rail_fast ship" speed="11.13" length="28.38" width="3.50" shape="-78.91,-239.61 -78.07,-236.44 -77.30,-234.39 -76.33,-232.44 -75.12,-230.62 -74.42,-229.78 -73.65,-229.00 -72.82,-228.29 -71.94,-227.65 -71.00,-227.10 -70.01,-226.62 -68.99,-226.24 -66.87,-225.71 -64.70,-225.47 -62.51,-225.48 -60.34,-225.69 -58.21,-226.06"/>
    </edge>
    <edge id=":104_7" function="internal">
        <lane id=":104_7_0" index="0" disallow="pedestrian tram rail_urban rail rail_electric rail_fast ship" speed="36.11" length="38.81" width="3.50" shape="-78.91,-239.61 -74.88,-220.63 -70.84,-201.65"/>
    </edge>
    <edge id=":104_8" function="internal">
        <lane id=":104_8_0" index="0" disallow="pedestrian tram rail_urban rail rail_electric rail_fast ship" speed="12.22" length="34.34" width="3.50" shape="-78.91,-239.61 -78.31,-235.70 -78.18,-233.06 -78.33,-230.42 -78.81,-227.83 -79.19,-226.57 -79.67,-225.34 -80.26,-224.15 -80.95,-223.03 -81.73,-221.96 -82.60,-220.97 -83.55,-220.06 -85.65,-218.46 -87.95,-217.15 -90.37,-216.11 -92.88,-215.30 -95.47,-214.66"/>
    </edge>
    <edge id=":104_9" function="internal">
        <lane id=":104_9_0" index="0" disallow="pedestrian tram rail_urban rail rail_electric rail_fast ship" speed="11.22" length="28.77" width="3.50" shape="-96.19,-218.09 -93.93,-218.64 -91.77,-219.34 -89.70,-220.23 -87.78,-221.31 -86.03,-222.65 -85.28,-223.37 -84.58,-224.17 -83.95,-225.02 -83.40,-225.92 -82.93,-226.87 -82.54,-227.86 -82.23,-228.86 -81.82,-231.04 -81.70,-233.25 -81.81,-235.49 -82.33,-238.90"/>
    </edge>
    <edge id=":104_10" function="internal">
        <lane id=":104_10_0" index="0" disallow="pedestrian tram rail_urban rail rail_electric rail_fast ship" speed="36.11" length="38.81" width="3.50" shape="-96.19,-218.09 -77.18,-222.08 -58.21,-226.06"/>
    </edge>
    <edge id=":104_11" function="internal">
        <lane id=":104_11_0" index="0" disallow="pedestrian tram rail_urban rail rail_electric rail_fast ship" speed="12.29" length="34.61" width="3.50" shape="-96.19,-218.09 -92.22,-218.71 -89.57,-218.85 -86.91,-218.72 -84.29,-218.25 -83.01,-217.88 -81.77,-217.41 -80.57,-216.84 -79.42,-216.16 -78.34,-215.39 -77.33,-214.52 -76.39,-213.58 -74.75,-211.48 -73.41,-209.19 -72.34,-206.75 -71.50,-204.23 -70.84,-201.65"/>
    </edge>
    <edge id=":105_0" function="internal">
        <lane id=":105_0_0" index="0" disallow="pedestrian tram rail_urban rail rail_electric rail_fast ship" speed="36.11" length="38.84" width="3.50" shape="-32.03,2.48 -36.02,-16.53 -40.01,-35.53"/>
    </edge>
    <edge id=":105_1" function="internal">
        <lane id=":105_1_0" index="0" disallow="pedestrian tram rail_urban rail rail_electric rail_fast ship" speed="12.22" length="34.42" width="3.50" shape="-32.03,2.48 -32.47,-0.05 -32.73,-2.62 -32.74,-5.23 -32.46,-7.87 -31.82,-10.45 -31.33,-11.76 -30.75,-12.99 -30.05,-14.18 -29.25,-15.29 -28.37,-16.33 -27.40,-17.29 -26.34,-18.18 -24.14,-19.65 -21.79,-20.83 -19.34,-21.76 -15.64,-22.75"/>
    </edge>
    <edge id=":105_2" function="internal">
        <lane id=":105_2_0" index="0" disallow="pedestrian tram rail_urban rail rail_electric rail_fast ship" speed="11.22" length="28.83" width="3.50" shape="-14.91,-19.32 -18.13,-18.47 -20.20,-17.68 -22.18,-16.69 -24.03,-15.45 -24.88,-14.74 -25.66,-13.96 -26.38,-13.11 -27.03,-12.21 -27.59,-11.25 -28.07,-10.25 -28.46,-9.21 -28.99,-7.06 -29.22,-4.86 -29.21,-2.64 -28.99,-0.43 -28.60,1.75"/>
    </edge>
    <edge id=":105_3" function="internal">
        <lane id=":105_3_0" index="0" disallow="pedestrian tram rail_urban rail rail_electric rail_fast ship" speed="12.19" length="34.29" width="3.50" shape="-14.91,-19.32 -18.82,-18.71 -21.46,-18.56 -24.09,-18.67 -26.69,-19.11 -27.96,-19.47 -29.20,-19.93 -30.39,-20.48 -31.53,-21.14 -32.61,-21.90 -33.62,-22.76 -34.55,-23.69 -36.18,-25.76 -37.51,-28.04 -38.56,-30.46 -39.38,-32.97 -40.01,-35.53"/>
    </edge>
    <edge id=":105_4" function="internal">
        <lane id=":105_4_0" index="0" disallow="pedestrian tram rail_urban rail rail_electric rail_fast ship" speed="11.19" length="28.71" width="3.50" shape="-36.59,-36.26 -36.04,-34.02 -35.33,-31.86 -34.44,-29.81 -33.34,-27.91 -31.98,-26.19 -31.25,-25.46 -30.44,-24.78 -29.58,-24.17 -28.66,-23.64 -27.70,-23.20 -26.70,-22.83 -25.69,-22.54 -23.51,-22.17 -21.29,-22.08 -19.05,-22.21 -15.64,-22.75"/>
    </edge>
    <edge id=":105_5" function="internal">
        <lane id=":105_5_0" index="0" disallow="pedestrian tram rail_urban rail rail_electric rail_fast ship" speed="36.11" length="38.84" width="3.50" shape="-36.59,-36.26 -32.59,-17.25 -28.60,1.75"/>
    </edge>
    <edge id=":106_0" function="internal">
        <lane id=":106_0_0" index="0" disallow="pedestrian tram rail_urban rail rail_electric rail_fast ship" speed="11.14" length="28.48" width="3.50" shape="81.94,-94.25 81.40,-96.47 80.71,-98.61 79.83,-100.65 78.75,-102.55 77.41,-104.27 76.69,-105.00 75.90,-105.69 75.05,-106.30 74.15,-106.84 73.20,-107.29 72.21,-107.67 71.22,-107.96 69.05,-108.34 66.85,-108.45 64.63,-108.33 61.25,-107.80"/>
    </edge>
    <edge id=":106_1" function="internal">
        <lane id=":106_1_0" index="0" disallow="pedestrian tram rail_urban rail rail_electric rail_fast ship" speed="36.11" length="38.81" width="3.50" shape="81.94,-94.25 78.00,-113.25 74.06,-132.25"/>
    </edge>
    <edge id=":106_2" function="internal">
        <lane id=":106_2_0" index="0" disallow="pedestrian tram rail_urban rail rail_electric rail_fast ship" speed="12.21" length="34.24" width="3.50" shape="81.94,-94.25 81.37,-98.03 81.24,-100.63 81.40,-103.25 81.88,-105.84 82.27,-107.16 82.77,-108.42 83.38,-109.64 84.09,-110.81 84.90,-111.90 85.80,-112.92 86.77,-113.86 87.83,-114.73 90.03,-116.17 92.37,-117.33 94.81,-118.24 98.49,-119.22"/>
    </edge>
    <edge id=":106_3" function="internal">
        <lane id=":106_3_0" index="0" disallow="pedestrian tram rail_urban rail rail_electric rail_fast ship" speed="11.21" length="28.67" width="3.50" shape="99.21,-115.80 96.01,-114.95 93.95,-114.18 91.97,-113.20 90.13,-111.99 89.27,-111.29 88.48,-110.53 87.75,-109.70 87.09,-108.81 86.52,-107.87 86.03,-106.89 85.62,-105.86 85.30,-104.80 84.89,-102.64 84.76,-100.44 84.87,-98.23 85.37,-94.96"/>
    </edge>
    <edge id=":106_4" function="internal">
        <lane id=":106_4_0" index="0" disallow="pedestrian tram rail_urban rail rail_electric rail_fast ship" speed="36.11" length="38.79" width="3.50" shape="99.21,-115.80 80.23,-111.80 61.25,-107.80"/>
    </edge>
    <edge id=":106_5" function="internal">
        <lane id=":106_5_0" index="0" disallow="pedestrian tram rail_urban rail rail_electric rail_fast ship" speed="12.23" length="34.51" width="3.50" shape="99.21,-115.80 95.28,-115.18 92.63,-115.03 89.98,-115.16 87.36,-115.62 86.09,-115.99 84.85,-116.47 83.65,-117.04 82.51,-117.72 81.43,-118.49 80.42,-119.36 79.50,-120.31 77.87,-122.41 76.55,-124.71 75.50,-127.15 74.68,-129.67 74.06,-132.25"/>
    </edge>
    <edge id=":106_6" function="internal">
        <lane id=":106_6_0" index="0" disallow="pedestrian tram rail_urban rail rail_electric rail_fast ship" speed="11.23" length="28.91" width="3.50" shape="77.48,-132.96 78.03,-130.72 78.73,-128.54 79.62,-126.47 80.72,-124.54 82.08,-122.79 82.81,-122.05 83.62,-121.35 84.48,-120.73 85.40,-120.19 86.36,-119.73 87.36,-119.35 88.37,-119.05 90.57,-118.66 92.80,-118.56 95.06,-118.68 98.49,-119.22"/>
    </edge>
    <edge id=":106_7" function="internal">
        <lane id=":106_7_0" index="0" disallow="pedestrian tram rail_urban rail rail_electric rail_fast ship" speed="36.11" length="38.81" width="3.50" shape="77.48,-132.96 81.42,-113.96 85.37,-94.96"/>
    </edge>
    <edge id=":106_8" function="internal">
        <lane id=":106_8_0" index="0" disallow="pedestrian tram rail_urban rail rail_electric rail_fast ship" speed="12.21" length="34.23" width="3.50" shape="77.48,-132.96 77.92,-130.45 78.16,-127.90 78.18,-125.30 77.90,-122.68 77.28,-120.11 76.81,-118.81 76.23,-117.58 75.55,-116.40 74.77,-115.28 73.89,-114.24 72.93,-113.27 71.89,-112.38 69.71,-110.90 67.37,-109.71 64.94,-108.78 61.25,-107.80"/>
    </edge>
    <edge id=":106_9" function="internal">
        <lane id=":106_9_0" index="0" disallow="pedestrian tram rail_urban rail rail_electric rail_fast ship" speed="11.20" length="28.66" width="3.50" shape="60.53,-111.22 63.72,-112.07 65.78,-112.86 67.75,-113.86 69.57,-115.10 70.41,-115.82 71.18,-116.60 71.89,-117.45 72.52,-118.35 73.07,-119.31 73.54,-120.31 73.92,-121.34 74.43,-123.48 74.66,-125.68 74.65,-127.88 74.43,-130.08 74.06,-132.25"/>
    </edge>
    <edge id=":106_10" function="internal">
        <lane id=":106_10_0" index="0" disallow="pedestrian tram rail_urban rail rail_electric rail_fast ship" speed="36.11" length="38.79" width="3.50" shape="60.53,-111.22 79.51,-115.22 98.49,-119.22"/>
    </edge>
    <edge id=":106_11" function="internal">
        <lane id=":106_11_0" index="0" disallow="pedestrian tram rail_urban rail rail_electric rail_fast ship" speed="12.15" length="34.08" width="3.50" shape="60.53,-111.22 64.41,-111.83 67.03,-111.97 69.65,-111.84 72.23,-111.39 73.49,-111.02 74.71,-110.56 75.89,-109.99 77.02,-109.32 78.08,-108.55 79.08,-107.70 80.00,-106.76 81.60,-104.69 82.90,-102.41 83.94,-100.01 84.75,-97.51 85.37,-94.96"/>
    </edge>
    <edge id=":107_0" function="internal">
        <lane id=":107_0_0" index="0" disallow="pedestrian tram rail_urban rail rail_electric rail_fast ship" speed="11.21" length="28.74" width="3.50" shape="-169.59,-41.01 -170.14,-43.24 -170.84,-45.41 -171.73,-47.47 -172.82,-49.38 -174.15,-51.13 -174.87,-51.88 -175.67,-52.58 -176.52,-53.20 -177.43,-53.75 -178.38,-54.22 -179.37,-54.60 -180.37,-54.91 -182.54,-55.31 -184.76,-55.42 -186.99,-55.31 -190.42,-54.77"/>
    </edge>