<routes>
	<vehicle depart="0.1" departLane="0" departPos="1.0" departSpeed="0.1789194" id="39" type="bicycle">
		<route edges=":55_3 66311"/>
	</vehicle>
	<vehicle depart="0.1" departLane="0" departPos="28.18538046071716" departSpeed="10.337686" id="33" type="passenger">
		<route edges=":55_0 66311"/>
	</vehicle>
	<vehicle depart="0.1" departLane="0" departPos="9.465908099370022" departSpeed="5.4758619" id="313" type="passenger">
		<route edges=":54_1 66302"/>
	</vehicle>
	<vehicle depart="0.1" departLane="0" departPos="2.5" departSpeed="5.70973" id="325" type="passenger">
		<route edges=":54_7 66319"/>
	</vehicle>
	<vehicle depart="0.1" departLane="0" departPos="2.5" departSpeed="4.6425971" id="346" type="passenger">
		<route edges=":55_5 66301"/>
	</vehicle>
	<vehicle depart="0.1" departLane="0" departPos="59.15869003899484" departSpeed="3.7786939" id="353" type="passenger">
		<route edges="66310 66333"/>
	</vehicle>
	<vehicle depart="0.1" departLane="0" departPos="48.03173363617241" departSpeed="2.8359588" id="356" type="passenger">
		<route edges="66310 66301"/>
	</vehicle>
	<vehicle depart="0.1" departLane="0" departPos="33.561701628153926" departSpeed="1.8462097" id="362" type="passenger">
		<route edges="66310 66301"/>
	</vehicle>
	<vehicle depart="0.1" departLane="0" departPos="23.124135955676582" departSpeed="5.8262778" id="333" type="motorcycle">
		<route edges=":55_2 66301 66257"/>
	</vehicle>
	<vehicle depart="0.1" departLane="0" departPos="25.75264151183258" departSpeed="0.7009149" id="365" type="truck">
		<route edges="66310 66301"/>
	</vehicle>
</routes>
