<!-- generated on 2020-12-18 15:54:35.870614 by ipykernel_launcher.py v1_2_0+5214-53edc58fcd
-->
<edges>
	<edge from="1" function="normal" id="23" length="155.7263107603264" numLanes="6" priority="1" speed="36.11111111111111" spreadType="center" to="2">
		<lane allow="moped bicycle pedestrian custom1 trailer evehicle rail_urban ship private vip custom2 authority delivery rail_electric taxi tram army hov coach motorcycle passenger rail emergency" index="0" length="155.7263107603264" shape="-45.631550000000004,25.999200000000002 -44.848150000000004,25.3251 -44.125249999999994,24.6787 -41.49495,22.3767 -40.772099999999995,21.730249999999998 -38.0642,19.3617 -37.419650000000004,18.7848 -37.3378,18.712449999999997 -34.51265,16.33085 -33.78905,15.6853 -31.16825,13.3285 -30.4446,12.683 -27.773699999999998,10.36995 -27.0501,9.7244 -24.25725,7.2765 -23.53365,6.63095 -21.023400000000002,4.46795 -20.29975,3.8224 -17.524749999999997,1.39705 -16.80115,0.7515000000000001 -14.10455,-1.51005 -13.3809,-2.15565 -10.6393,-4.61015 -9.91565,-5.2557 -9.25745,-5.8267500000000005 -7.1815500000000005,-7.62865 -6.45805,-8.27435 -3.8062500000000004,-10.5597 -3.08275,-11.205449999999999 -0.38794999999999996,-13.5268 0.3355,-14.1725 4.83965,-18.0786 5.56315,-18.72435 8.43525,-21.1812 9.15875,-21.826900000000002 12.03855,-24.30605 12.762049999999999,-24.95175 15.586500000000001,-27.428150000000002 16.310000000000002,-28.07385 18.98035,-30.3875 19.70385,-31.0332 22.28615,-33.25645 22.5083,-33.45225 23.215400000000002,-34.115750000000006 23.71145,-34.57485 26.0215,-36.6182 26.74135,-37.2682 29.6053,-39.82315 30.32515,-40.4731 33.1706,-43.00045 33.89045,-43.650400000000005 36.64305,-46.06975 37.3629,-46.71975 39.248099999999994,-48.3494 40.0933,-49.08265 41.8067,-50.623599999999996 48.039,-55.91595 50.627250000000004,-58.12305 51.3547,-58.763949999999994 54.17675,-61.2017 54.9041,-61.8426 55.551950000000005,-62.3977 57.5975,-64.19315 58.31735,-64.84309999999999 60.9821,-67.1939 61.70205,-67.84375 64.487,-70.293 65.2069,-70.94290000000001 68.00829999999999,-73.37735 68.72825,-74.02725 71.5573,-76.5437" speed="36.11111111111111" width="3.681428812295574"/>
		<lane allow="moped bicycle pedestrian custom1 trailer evehicle rail_urban ship private vip custom2 authority delivery rail_electric taxi tram army hov coach motorcycle passenger rail emergency" index="1" length="155.7263107603264" shape="-43.24965,28.8089 -42.430949999999996,28.11135 -41.78675,27.54135 -41.7172,27.48115 -39.0884,25.2028 -38.4199,24.61175 -38.3485,24.55 -36.0272,22.5392 -36.006150000000005,22.5208 -35.614999999999995,22.1802 -34.884550000000004,21.5298 -32.9463,19.8998 -32.0542,19.14505 -31.3869,18.54875 -28.7912,16.211100000000002 -28.7415,16.16715 -28.04675,15.545300000000001 -27.97685,15.4847 -25.32005,13.1785 -25.17335,13.04795 -24.6672,12.5963 -24.61015,12.54635 -22.1147,10.36175 -21.7886,10.0724 -21.0688,9.4224 -18.5721,7.2446 -17.8804,6.619949999999999 -17.83835,6.5829 -15.092099999999999,4.15255 -14.3723,3.5025500000000003 -13.42225,2.6990000000000003 -11.6979,1.2536500000000002 -11.0371,0.6651500000000001 -10.5776,0.25545000000000007 -8.3326,-1.7356 -7.5975,-2.38495 -7.5142500000000005,-2.4564000000000004 -4.77515,-4.81025 -4.1244499999999995,-5.3843499999999995 -4.0316,-5.4636499999999995 -2.6059,-6.68155 -1.36075,-7.7524999999999995 -0.7037500000000001,-8.3376 -0.6228499999999999,-8.4072 0.3881,-9.2781 2.0684,-10.740549999999999 2.7888,-11.3899 7.27335,-15.3177 7.9937499999999995,-15.96705 8.0747,-16.035899999999998 10.8521,-18.4071 10.96495,-18.5068 11.4138,-18.89995 11.5252,-18.9934 14.417100000000001,-21.415799999999997 14.74625,-21.69745 14.835350000000002,-21.77685 15.149450000000002,-22.05435 15.2181,-22.11365 17.884050000000002,-24.44705 18.07215,-24.61405 18.7919,-25.2641 21.4483,-27.59315 22.16805,-28.2432 23.298099999999998,-29.2269 25.02485,-30.71035 25.684350000000002,-31.29775 25.7414,-31.3476 26.26465,-31.80525 28.53035,-33.8068 29.21935,-34.42805 29.250999999999998,-34.456199999999995 32.116299999999995,-37.009299999999996 32.80525,-37.630449999999996 32.842749999999995,-37.66375 35.31975,-39.86125 35.6484,-40.149249999999995 36.3285,-40.75465 36.39655,-40.8137 38.31675,-42.4799 39.159499999999994,-43.208349999999996 39.812,-43.7878 39.908699999999996,-43.8697 42.6988,-46.24255 43.35175,-46.8224 43.4,-46.864549999999994 45.981300000000005,-49.13665 46.116749999999996,-49.25635 46.817099999999996,-49.87975 46.91545,-49.96275 49.0851,-51.80745 49.78965,-52.411 50.46605,-53.017700000000005 50.53245,-53.07515 53.08,-55.288399999999996 53.75685,-55.8955 53.805400000000006,-55.93815 56.602500000000006,-58.3988 56.7568,-58.5369 57.2531,-58.97985 57.32115,-59.038799999999995 59.82665,-61.210499999999996 60.06845,-61.4227 60.75695,-62.043350000000004 60.803250000000006,-62.0841 63.4551,-64.42115 64.1755,-65.07055 66.96215000000001,-67.5179 67.6825,-68.1673 67.9661,-68.41265 70.48345,-70.57115 70.85544999999999,-70.90174999999999 71.14564999999999,-71.16095 71.19565,-71.2047 74.06935,-73.72765 74.07095,-73.72905" speed="36.11111111111111" width="3.4488983313516317"/>
		<lane allow="moped bicycle pedestrian custom1 trailer evehicle rail_urban ship private vip custom2 authority delivery rail_electric taxi tram army hov coach motorcycle passenger rail emergency" index="2" length="155.7263107603264" shape="-40.94625,31.525949999999998 -40.620450000000005,31.246699999999997 -40.561350000000004,31.192 -37.663700000000006,28.6015 -33.698,25.1318 -30.72415,22.5135 -29.601149999999997,21.5216 -26.62305,18.92415 -22.808300000000003,15.594349999999999 -19.81255,12.9882 -18.70505,12.01145 -15.73515,9.393650000000001 -11.20925,5.39035 -11.17875,5.3637999999999995 -8.19725,2.7626 -7.6046499999999995,2.25035 -4.603,-0.33605000000000007 -0.31849999999999995,-4.0217 2.66995,-6.6151 10.3169,-13.33165 10.34975,-13.36015 13.34455,-15.9595 14.88415,-17.2593 17.19675,-19.2171 17.8667,-19.79945 20.190350000000002,-21.8512 25.5462,-26.64645 25.58735,-26.68255 28.517699999999998,-29.22985 28.532600000000002,-29.2431 36.38565,-36.2423 37.54455,-37.26245 37.57455,-37.2885 39.3844,-38.86215 40.49655,-39.80905 48.05,-46.2183 48.09765,-46.2595 48.3836,-46.506699999999995 51.085300000000004,-48.855199999999996 51.4104,-49.1469 58.7171,-55.7286 59.05065,-56.0207 59.0679,-56.035650000000004 61.715050000000005,-58.3369 62.072199999999995,-58.651650000000004 69.8773,-65.60995 70.12755,-65.83035 70.1568,-65.8558 72.88075,-68.22395 73.10635,-68.41794999999999 76.3358,-71.19300000000001" speed="36.11111111111111" width="3.216879682238676"/>
		<lane allow="moped bicycle pedestrian custom1 trailer evehicle rail_urban ship private vip custom2 authority delivery rail_electric taxi tram army hov coach motorcycle passenger rail emergency" index="3" length="155.7263107603264" shape="-38.75935,34.105599999999995 -38.404849999999996,33.800749999999994 -35.5483,31.2282 -35.4773,31.165799999999997 -32.29745,28.3639 -29.3694,25.693849999999998 -27.486150000000002,24.0422 -27.44915,24.010150000000003 -24.45895,21.42085 -21.2382,18.6304 -21.227,18.6206 -18.2365,16.0191 -16.46425,14.456600000000002 -13.491050000000001,11.8377 -10.2957,9.01325 -7.309749999999999,6.4085 -5.427099999999999,4.7427 -2.45515,2.1224499999999997 0.94405,-0.8692 3.9367,-3.4662499999999996 12.00475,-10.425249999999998 12.017199999999999,-10.4361 15.007850000000001,-13.03135 16.97895,-14.727450000000001 19.9761,-17.31055 23.27555,-20.198 23.3154,-20.2334 26.26615,-22.8379 26.2971,-22.865499999999997 27.7785,-24.1854 30.7571,-26.79895 34.276650000000004,-29.926650000000002 37.22645,-32.523700000000005 37.263099999999994,-32.55655 38.6071,-33.75915 41.57625,-36.383449999999996 45.06515,-39.400850000000005 48.082300000000004,-41.968450000000004 50.230900000000005,-43.7932 53.21915,-46.385000000000005 56.76495,-49.548500000000004 59.72025,-52.1918 60.8161,-53.17115 60.88955,-53.234899999999996 63.8791,-55.8304 67.6104,-59.109899999999996 70.5883,-61.732749999999996 70.61529999999999,-61.75675 72.11405,-63.087 75.09445,-65.69835 78.56125,-68.7011" speed="36.11111111111111" width="3.049599213011441"/>
		<lane allow="moped bicycle pedestrian custom1 trailer evehicle rail_urban ship private vip custom2 authority delivery rail_electric taxi tram army hov coach motorcycle passenger rail emergency" index="4" length="155.7263107603264" shape="-36.6526,36.59065 -30.121850000000002,30.9833 -30.00485,30.87655 -27.26595,28.322499999999998 -19.296,21.405700000000003 -19.01445,21.161949999999997 -16.309150000000002,18.810299999999998 -16.021250000000002,18.5594 -8.240300000000001,11.689 -8.116249999999999,11.579550000000001 -8.0829,11.550550000000001 -5.2061,9.04935 -5.0771,8.93565 3.0283499999999997,1.6997499999999999 3.0602,1.6713 3.1105,1.6275 6.04065,-0.9200499999999999 6.102,-0.9734 14.1719,-7.9513 14.3095,-8.071 17.1613,-10.550049999999999 17.31135,-10.679300000000001 25.4317,-17.67225 25.5336,-17.76015 28.4119,-20.2622 28.537,-20.3723 36.504400000000004,-27.4406 39.481300000000005,-30.02845 47.1808,-36.86035 47.21555,-36.89075 47.42595,-37.074749999999995 50.1982,-39.4846 50.422250000000005,-39.67895 58.80475,-46.87285 58.828500000000005,-46.8935 59.075149999999994,-47.10715 61.81455,-49.4885 62.0907,-49.73395 69.72845,-56.495450000000005 69.87254999999999,-56.6205 72.7166,-59.092749999999995 72.863,-59.22005 80.8101,-66.18295" speed="36.11111111111111" width="3.2801225967942"/>
		<lane allow="moped bicycle pedestrian custom1 trailer evehicle rail_urban ship private vip custom2 authority delivery rail_electric taxi tram army hov coach motorcycle passenger rail emergency" index="5" length="155.7263107603264" shape="-34.46265,39.17385 -27.88065,33.593900000000005 -27.645650000000003,33.38755 -27.527250000000002,33.2773 -24.9162,30.84765 -24.5758,30.54185 -17.0574,23.98485 -16.669,23.64665 -14.06935,21.38685 -13.688400000000001,21.0549 -5.9159500000000005,14.26565 -5.5287,13.92825 -2.92905,11.66835 -2.5888999999999998,11.3691 -2.5567,11.34045 5.351100000000001,4.29315 5.7237,3.96535 8.3234,1.7054500000000001 8.711,1.3683 16.56925,-5.4735 16.9589,-5.81245 19.55855,-8.07235 19.9506,-8.412849999999999 27.6511,-15.095550000000001 28.04095,-15.434149999999999 30.6428,-17.69585 30.98895,-18.0 31.01735,-18.02525 38.7612,-24.905900000000003 39.135999999999996,-25.23515 41.73565,-27.49505 42.11045,-27.8221 42.12065,-27.831049999999998 49.701499999999996,-34.47295 50.0865,-34.808949999999996 52.6862,-37.068749999999994 53.09265,-37.41825 61.105000000000004,-44.23725 61.4838,-44.5629 61.5112,-44.586749999999995 64.111,-46.84645 64.41975,-47.11985 64.47175,-47.16695 71.9755,-53.9589 72.33695,-54.2791 74.9366,-56.53895 75.32740000000001,-56.87865 83.09174999999999,-63.62805" speed="36.11111111111111" width="3.480819848828715"/>
	</edge>
	<edge from="2" function="normal" id="24" length="30.037383842168175" numLanes="5" priority="1" speed="36.11111111111111" spreadType="center" to="3">
		<lane allow="moped bicycle pedestrian custom1 trailer evehicle rail_urban ship private truck vip custom2 authority delivery rail_electric taxi tram army hov coach motorcycle passenger bus rail emergency" index="0" length="30.037383842168175" shape="74.07095,-73.72905 78.78345,-77.84315 81.76820000000001,-80.4486 81.78,-80.45895 89.9011,-87.58165 92.88615,-90.18735000000001 96.8029,-93.63714999999999" speed="36.11111111111111" width="3.507742570372002"/>
		<lane allow="moped bicycle pedestrian custom1 trailer evehicle rail_urban ship private vip custom2 authority delivery rail_electric taxi tram army hov coach motorcycle passenger rail emergency" index="1" length="30.037383842168175" shape="76.3358,-71.19300000000001 81.0178,-75.21695 81.1327,-75.31555 81.16165000000001,-75.3407 84.05269999999999,-77.8536 84.13419999999999,-77.9248 92.13255,-84.9297 92.16835,-84.96095 92.18,-84.9711 95.13425000000001,-87.53925000000001 95.17605,-87.5758 99.081,-91.01650000000001" speed="36.11111111111111" width="3.2925795176426647"/>
		<lane allow="moped bicycle pedestrian custom1 trailer evehicle rail_urban ship private vip custom2 authority delivery rail_electric taxi tram army hov coach motorcycle passenger rail emergency" index="2" length="30.037383842168175" shape="78.56125,-68.7011 78.8639,-68.96265 81.869,-71.545 83.36529999999999,-72.8609 86.3264,-75.4927 89.95755,-78.72835 92.93835,-81.3265 94.2153,-82.4208 97.23294999999999,-84.99885 100.9346,-88.17475 100.98259999999999,-88.2167 101.2852,-88.48085" speed="36.11111111111111" width="3.088246003802152"/>
		<lane allow="moped bicycle pedestrian custom1 trailer evehicle rail_urban ship private vip custom2 authority delivery rail_electric taxi tram army hov coach motorcycle passenger rail emergency" index="3" length="30.037383842168175" shape="80.8101,-66.18295 81.0426,-66.38675 81.0608,-66.40255 81.1603,-66.4892 84.05285,-69.00365 91.8834,-76.06985 92.04855,-76.2173 92.1033,-76.26505 94.91705,-78.71205 95.05545000000001,-78.8313 95.0912,-78.86145 103.17195,-85.69579999999999 103.2944,-85.80109999999999 103.31965,-85.82300000000001 103.47685,-85.9596" speed="36.11111111111111" width="3.3629107763959487"/>
		<lane allow="moped bicycle pedestrian custom1 trailer evehicle rail_urban ship private vip custom2 authority delivery rail_electric taxi tram army hov coach motorcycle passenger rail emergency" index="4" length="30.037383842168175" shape="83.09174999999999,-63.62805 83.4099,-63.90465 83.8007,-64.24435 86.40035,-66.50415000000001 86.72855,-66.7937 86.76825,-66.8293 94.22325000000001,-73.5121 94.59164999999999,-73.83705 97.19130000000001,-76.09694999999999 97.59700000000001,-76.44595 105.55485,-83.2255 105.72579999999999,-83.3725" speed="36.11111111111111" width="3.482194384292757"/>
	</edge>
	<edge from="2" function="normal" id="22" length="30.280343837028084" numLanes="1" priority="1" speed="36.11111111111111" spreadType="center" to="4">
		<lane allow="moped bicycle pedestrian custom1 trailer evehicle rail_urban ship private truck vip custom2 authority delivery rail_electric taxi tram army hov coach motorcycle passenger bus rail emergency" index="0" length="30.280343837028084" shape="71.5573,-76.5437 76.9588,-81.41890000000001 89.93415,-93.2918 93.8509,-97.03305" speed="36.11111111111111" width="3.9632723701506993"/>
	</edge>
</edges>
