<!-- generated on 2020-12-18 16:05:50.380064 by ipykernel_launcher.py v1_2_0+5214-53edc58fcd
-->
<tlLogics/>
