<routes>
	<vehicle depart="0.1" departLane="1" departPos="45.56848775170608" departSpeed="0.0" id="312" type="passenger">
		<route edges="69212 69190"/>
	</vehicle>
	<vehicle depart="0.1" departLane="1" departPos="38.04094394905201" departSpeed="1.888928" id="314" type="passenger">
		<route edges="69188 69763"/>
	</vehicle>
	<vehicle depart="0.1" departLane="1" departPos="38.05353183966963" departSpeed="0.0" id="321" type="passenger">
		<route edges="69212 69190"/>
	</vehicle>
	<vehicle depart="0.1" departLane="1" departPos="2.5" departSpeed="0.15134582" id="330" type="passenger">
		<route edges="69765 69741"/>
	</vehicle>
	<vehicle depart="0.1" departLane="0" departPos="12.146326876358385" departSpeed="7.9602531" id="360" type="passenger">
		<route edges=":17_10 69210"/>
	</vehicle>
	<vehicle depart="0.1" departLane="0" departPos="17.107525981483633" departSpeed="11.296445" id="362" type="passenger">
		<route edges="69212 69763"/>
	</vehicle>
	<vehicle depart="0.1" departLane="0" departPos="12.810315994003359" departSpeed="5.005403" id="363" type="passenger">
		<route edges="69765 69210"/>
	</vehicle>
	<vehicle depart="0.1" departLane="0" departPos="3.5435428327011547" departSpeed="2.4134216" id="365" type="motorcycle">
		<route edges="69765 69210"/>
	</vehicle>
	<vehicle depart="0.1" departLane="0" departPos="3.75" departSpeed="3.1532338" id="325" type="truck">
		<route edges=":17_11 69741"/>
	</vehicle>
	<vehicle depart="0.1" departLane="0" departPos="24.920987797283534" departSpeed="10.819656" id="357" type="truck">
		<route edges=":17_4 69763"/>
	</vehicle>
</routes>
