<!-- generated on Tue Feb  9 22:16:20 2021 by Eclipse SUMO netconvert Version 1.8.0
<configuration xmlns:xsi="http://www.w3.org/2001/XMLSchema-instance" xsi:noNamespaceSchemaLocation="http://sumo.dlr.de/xsd/netconvertConfiguration.xsd">

    <input>
        <node-files value="./converted_scenarios/scenario-factory/DEU_Guetersloh-39_1_I-1-1/DEU_Guetersloh-39_1_I-1-1.nod.xml"/>
        <edge-files value="./converted_scenarios/scenario-factory/DEU_Guetersloh-39_1_I-1-1/DEU_Guetersloh-39_1_I-1-1.edg.xml"/>
        <connection-files value="./converted_scenarios/scenario-factory/DEU_Guetersloh-39_1_I-1-1/DEU_Guetersloh-39_1_I-1-1.con.xml"/>
        <tllogic-files value="./converted_scenarios/scenario-factory/DEU_Guetersloh-39_1_I-1-1/DEU_Guetersloh-39_1_I-1-1.tll.xml"/>
        <type-files value="/home/zen/commonroad-interactive-benchmarks/install/commonroad-map-tool/crmapconverter/sumo_map/templates/DEU.typ.xml"/>
    </input>

    <output>
        <output-file value="./converted_scenarios/scenario-factory/DEU_Guetersloh-39_1_I-1-1/DEU_Guetersloh-39_1_I-1-1.net.xml"/>
    </output>

    <processing>
        <geometry.remove.keep-edges.explicit value="true"/>
        <geometry.avoid-overlap value="true"/>
        <offset.disable-normalization value="true"/>
    </processing>

    <junctions>
        <no-turnarounds value="true"/>
        <junctions.internal-link-detail value="20"/>
    </junctions>

    <report>
        <aggregate-warnings value="5"/>
    </report>

    <random_number>
        <seed value="1234"/>
    </random_number>

</configuration>
--><net xmlns:xsi="http://www.w3.org/2001/XMLSchema-instance" version="1.6" junctionCornerDetail="5" junctionLinkDetail="20" limitTurnSpeed="5.50" xsi:noNamespaceSchemaLocation="http://sumo.dlr.de/xsd/net_file.xsd">

    <location netOffset="0.00,0.00" convBoundary="-1018.51,-890.40,-898.99,-764.93" origBoundary="-1018.51,-891.74,-898.42,-763.76" projParameter="!"/>

    <type id="highway.bridleway" priority="1" speed="2.78" allow="pedestrian" oneway="1" width="2.00"/>
    <type id="highway.bus_guideway" priority="1" speed="27.78" allow="bus" oneway="1"/>
    <type id="highway.cycleway" priority="1" speed="8.33" allow="bicycle" oneway="0" width="1.00"/>
    <type id="highway.footway" priority="1" speed="2.78" allow="pedestrian" oneway="1" width="2.00"/>
    <type id="highway.ford" priority="1" speed="2.78" allow="army" oneway="0"/>
    <type id="highway.living_street" priority="2" speed="2.78" disallow="tram rail_urban rail rail_electric rail_fast ship" oneway="0"/>
    <type id="highway.motorway" priority="14" speed="39.44" allow="private emergency authority army vip passenger hov taxi bus coach delivery truck trailer motorcycle evehicle custom1 custom2" oneway="1"/>
    <type id="highway.motorway_link" priority="9" speed="22.22" allow="private emergency authority army vip passenger hov taxi bus coach delivery truck trailer motorcycle evehicle custom1 custom2" oneway="1"/>
    <type id="highway.path" priority="1" speed="2.78" allow="pedestrian bicycle" oneway="0" width="2.00"/>
    <type id="highway.pedestrian" priority="1" speed="2.78" allow="pedestrian" oneway="1" width="2.00"/>
    <type id="highway.primary" priority="12" speed="27.78" disallow="pedestrian tram rail_urban rail rail_electric rail_fast ship" oneway="0"/>
    <type id="highway.primary_link" priority="7" speed="22.22" disallow="pedestrian tram rail_urban rail rail_electric rail_fast ship" oneway="0"/>
    <type id="highway.raceway" priority="15" speed="83.33" allow="vip" oneway="0"/>
    <type id="highway.residential" priority="3" speed="13.89" disallow="pedestrian tram rail_urban rail rail_electric rail_fast ship" oneway="0"/>
    <type id="highway.secondary" priority="11" speed="27.78" disallow="pedestrian tram rail_urban rail rail_electric rail_fast ship" oneway="0"/>
    <type id="highway.secondary_link" priority="6" speed="22.22" disallow="pedestrian tram rail_urban rail rail_electric rail_fast ship" oneway="0"/>
    <type id="highway.service" priority="1" speed="5.56" allow="pedestrian delivery bicycle" oneway="0"/>
    <type id="highway.stairs" priority="1" speed="1.39" allow="pedestrian" oneway="1" width="2.00"/>
    <type id="highway.step" priority="1" speed="1.39" allow="pedestrian" oneway="1" width="2.00"/>
    <type id="highway.steps" priority="1" speed="1.39" allow="pedestrian" oneway="1" width="2.00"/>
    <type id="highway.tertiary" priority="10" speed="22.22" disallow="pedestrian tram rail_urban rail rail_electric rail_fast ship" oneway="0"/>
    <type id="highway.tertiary_link" priority="5" speed="22.22" disallow="pedestrian tram rail_urban rail rail_electric rail_fast ship" oneway="0"/>
    <type id="highway.track" priority="1" speed="5.56" allow="pedestrian motorcycle moped bicycle" oneway="0"/>
    <type id="highway.trunk" priority="13" speed="27.78" disallow="pedestrian bicycle tram rail_urban rail rail_electric rail_fast ship" oneway="0"/>
    <type id="highway.trunk_link" priority="8" speed="22.22" disallow="pedestrian bicycle tram rail_urban rail rail_electric rail_fast ship" oneway="0"/>
    <type id="highway.unclassified" priority="4" speed="13.89" disallow="pedestrian tram rail_urban rail rail_electric rail_fast ship" oneway="0"/>
    <type id="highway.unsurfaced" priority="1" speed="8.33" disallow="tram rail_urban rail rail_electric rail_fast ship" oneway="0"/>
    <type id="railway.highspeed" priority="21" speed="69.44" allow="rail_fast" oneway="1"/>
    <type id="railway.light_rail" priority="19" speed="27.78" allow="rail_urban" oneway="1"/>
    <type id="railway.preserved" priority="16" speed="27.78" allow="rail" oneway="1"/>
    <type id="railway.rail" priority="20" speed="44.44" allow="rail" oneway="1"/>
    <type id="railway.subway" priority="18" speed="27.78" allow="rail_urban" oneway="1"/>
    <type id="railway.tram" priority="17" speed="13.89" allow="tram" oneway="1"/>

    <edge id=":17_0" function="internal">
        <lane id=":17_0_0" index="0" disallow="pedestrian tram rail_urban rail rail_electric rail_fast ship" speed="16.05" length="44.91" width="3.50" shape="-952.12,-823.77 -954.70,-826.53 -957.54,-829.04 -960.18,-830.93 -963.00,-832.54 -965.98,-833.83 -969.08,-834.79 -972.27,-835.40 -975.51,-835.68 -979.29,-835.61 -983.06,-835.16 -987.29,-834.26 -991.43,-833.00 -992.96,-832.45"/>
    </edge>
    <edge id=":17_1" function="internal">
        <lane id=":17_1_0" index="0" disallow="pedestrian tram rail_urban rail rail_electric rail_fast ship" speed="36.11" length="54.82" width="3.50" shape="-952.12,-823.77 -961.72,-834.74 -970.61,-844.34 -978.38,-852.21 -985.34,-858.77 -990.25,-863.08"/>
    </edge>
    <edge id=":17_2" function="internal">
        <lane id=":17_2_0" index="0" disallow="pedestrian tram rail_urban rail rail_electric rail_fast ship" speed="12.25" length="42.64" width="3.50" shape="-949.47,-826.05 -952.22,-829.52 -954.35,-832.70 -955.87,-835.50 -956.85,-837.85 -957.57,-840.29 -957.87,-842.18 -957.93,-844.09 -957.72,-845.99 -957.22,-847.83 -956.44,-849.57 -955.43,-851.19 -953.77,-853.12 -951.86,-854.81 -949.24,-856.62 -945.87,-858.43 -943.54,-859.46"/>
    </edge>
    <edge id=":17_3" function="internal">
        <lane id=":17_3_0" index="0" disallow="pedestrian tram rail_urban rail rail_electric rail_fast ship" speed="10.66" length="31.93" width="3.50" shape="-940.88,-852.99 -944.34,-851.36 -947.06,-849.68 -949.04,-848.06 -950.34,-846.65 -951.40,-845.06 -952.16,-843.30 -952.54,-841.43 -952.53,-839.51 -952.20,-837.62 -951.60,-835.80 -950.49,-833.50 -948.77,-830.81 -946.79,-828.30"/>
    </edge>
    <edge id=":17_4" function="internal">
        <lane id=":17_4_0" index="0" disallow="pedestrian tram rail_urban rail rail_electric rail_fast ship" speed="36.11" length="55.99" width="3.50" shape="-940.88,-852.99 -965.66,-842.96 -988.71,-834.05 -992.96,-832.45"/>
    </edge>
    <edge id=":17_5" function="internal">
        <lane id=":17_5_0" index="0" disallow="pedestrian tram rail_urban rail rail_electric rail_fast ship" speed="18.74" length="51.36" width="3.50" shape="-942.22,-856.22 -946.72,-854.55 -950.84,-853.37 -955.04,-852.53 -958.76,-852.10 -962.50,-851.99 -966.24,-852.21 -969.94,-852.79 -973.57,-853.70 -977.10,-854.95 -980.51,-856.51 -984.23,-858.64 -987.75,-861.07 -990.25,-863.08"/>
    </edge>
    <edge id=":17_6" function="internal">
        <lane id=":17_6_0" index="0" disallow="pedestrian tram rail_urban rail rail_electric rail_fast ship" speed="17.69" length="45.70" width="3.50" shape="-985.79,-868.47 -981.93,-865.43 -978.38,-863.02 -974.65,-860.90 -971.23,-859.33 -967.69,-858.08 -964.05,-857.17 -960.86,-856.71 -957.65,-856.55 -954.43,-856.70 -950.71,-857.25 -947.08,-858.18 -943.54,-859.46"/>
    </edge>
    <edge id=":17_7" function="internal">
        <lane id=":17_7_0" index="0" disallow="pedestrian tram rail_urban rail rail_electric rail_fast ship" speed="36.11" length="56.05" width="3.50" shape="-985.79,-868.48 -978.94,-862.40 -971.66,-855.41 -963.58,-847.10 -954.74,-837.43 -946.79,-828.30"/>
    </edge>
    <edge id=":17_8" function="internal">
        <lane id=":17_8_0" index="0" disallow="pedestrian tram rail_urban rail rail_electric rail_fast ship" speed="11.98" length="46.14" width="3.50" shape="-988.02,-865.78 -984.37,-862.46 -981.51,-859.40 -979.38,-856.63 -977.95,-854.23 -977.09,-852.32 -976.50,-850.31 -976.26,-848.23 -976.43,-846.14 -977.04,-844.14 -978.02,-842.29 -979.29,-840.63 -980.78,-839.15 -982.98,-837.43 -985.96,-835.60 -989.72,-833.76 -992.96,-832.45"/>
    </edge>
    <edge id=":17_9" function="internal">
        <lane id=":17_9_0" index="0" disallow="pedestrian tram rail_urban rail rail_electric rail_fast ship" speed="10.30" length="33.70" width="3.50" shape="-995.42,-839.00 -991.53,-840.64 -988.44,-842.31 -986.16,-843.94 -984.63,-845.39 -983.39,-847.09 -982.78,-848.36 -982.42,-849.71 -982.33,-851.11 -982.49,-852.50 -983.13,-854.51 -984.11,-856.37 -985.76,-858.64 -988.16,-861.20 -990.25,-863.08"/>
    </edge>
    <edge id=":17_10" function="internal">
        <lane id=":17_10_0" index="0" disallow="pedestrian tram rail_urban rail rail_electric rail_fast ship" speed="36.11" length="55.77" width="3.50" shape="-995.42,-839.00 -972.43,-847.82 -948.19,-857.55 -943.54,-859.46"/>
    </edge>
    <edge id=":17_11" function="internal">
        <lane id=":17_11_0" index="0" disallow="pedestrian tram rail_urban rail rail_electric rail_fast ship" speed="17.17" length="51.50" width="3.50" shape="-994.19,-835.73 -989.05,-837.47 -984.34,-838.73 -979.54,-839.63 -975.23,-840.07 -971.43,-840.12 -967.65,-839.82 -964.45,-839.25 -961.32,-838.37 -958.29,-837.17 -955.41,-835.66 -952.70,-833.86 -950.19,-831.80 -947.51,-829.12 -946.79,-828.30"/>
    </edge>

    <edge id="69188" from="16" to="17" priority="3" type="highway.residential" spreadType="center" length="36.66" shape="-1015.15,-890.40 -965.57,-848.35">
        <lane id="69188_0" index="0" disallow="pedestrian tram rail_urban rail rail_electric rail_fast ship" speed="36.11" length="36.69" width="3.50" customShape="1" shape="-1014.04,-891.75 -998.28,-878.82 -985.72,-868.42"/>
        <lane id="69188_1" index="1" disallow="pedestrian tram rail_urban rail rail_electric rail_fast ship" speed="36.11" length="36.66" width="3.50" customShape="1" shape="-1016.27,-889.05 -1000.52,-876.13 -987.98,-865.74"/>
    </edge>
    <edge id="69190" from="17" to="13" priority="3" type="highway.residential" spreadType="center" length="36.61" shape="-969.07,-844.44 -1018.51,-886.36">
        <lane id="69190_0" index="0" disallow="pedestrian tram rail_urban rail rail_electric rail_fast ship" speed="36.11" length="36.61" width="3.50" customShape="1" shape="-990.25,-863.08 -1002.77,-873.45 -1018.51,-886.36"/>
    </edge>
    <edge id="69210" from="17" to="8" priority="3" type="highway.residential" spreadType="center" length="45.92" shape="-968.69,-847.41 -900.65,-875.84">
        <lane id="69210_0" index="0" disallow="pedestrian tram rail_urban rail rail_electric rail_fast ship" speed="36.11" length="45.92" width="3.50" customShape="1" shape="-943.54,-859.46 -927.47,-865.99 -912.70,-871.65 -900.65,-875.84"/>
    </edge>
    <edge id="69212" from="9" to="17" priority="3" type="highway.residential" spreadType="center" length="45.48" shape="-898.99,-870.86 -966.78,-842.52">
        <lane id="69212_0" index="0" disallow="pedestrian tram rail_urban rail rail_electric rail_fast ship" speed="36.11" length="45.48" width="3.50" customShape="1" shape="-898.42,-869.21 -910.31,-865.07 -924.93,-859.46 -940.90,-852.98"/>
        <lane id="69212_1" index="1" disallow="pedestrian tram rail_urban rail rail_electric rail_fast ship" speed="36.11" length="45.66" width="3.50" customShape="1" shape="-899.57,-872.51 -911.51,-868.36 -926.20,-862.73 -942.22,-856.22"/>
    </edge>
    <edge id="69741" from="17" to="3" priority="3" type="highway.residential" spreadType="center" length="70.01" shape="-966.56,-846.85 -911.07,-768.40">
        <lane id="69741_0" index="0" disallow="pedestrian tram rail_urban rail rail_electric rail_fast ship" speed="36.11" length="70.01" width="3.50" customShape="1" shape="-946.79,-828.30 -941.28,-821.63 -936.36,-815.14 -932.35,-809.25 -928.64,-803.17 -924.75,-796.02 -911.07,-768.40"/>
    </edge>
    <edge id="69743" from="14" to="17" priority="3" type="highway.residential" spreadType="center" length="69.65" shape="-915.21,-764.93 -970.90,-843.90">
        <lane id="69743_0" index="0" disallow="pedestrian tram rail_urban rail rail_electric rail_fast ship" speed="36.11" length="69.65" width="3.50" customShape="1" shape="-916.78,-764.16 -930.67,-792.22 -934.44,-799.21 -938.02,-805.14 -941.92,-810.87 -946.71,-817.21 -952.18,-823.84"/>
        <lane id="69743_1" index="1" disallow="pedestrian tram rail_urban rail rail_electric rail_fast ship" speed="36.11" length="70.47" width="3.50" customShape="1" shape="-913.64,-765.71 -927.76,-794.22 -931.59,-801.28 -935.23,-807.26 -939.17,-813.05 -944.01,-819.44 -949.49,-826.07"/>
    </edge>
    <edge id="69763" from="17" to="11" priority="3" type="highway.residential" spreadType="center" length="15.51" shape="-967.22,-844.23 -1007.49,-827.01">
        <lane id="69763_0" index="0" disallow="pedestrian tram rail_urban rail rail_electric rail_fast ship" speed="36.11" length="15.51" width="3.50" customShape="1" shape="-992.96,-832.45 -1000.23,-829.73 -1007.49,-827.01"/>
    </edge>
    <edge id="69765" from="15" to="17" priority="3" type="highway.residential" spreadType="center" length="15.52" shape="-1009.33,-831.93 -969.09,-849.13">
        <lane id="69765_0" index="0" disallow="pedestrian tram rail_urban rail rail_electric rail_fast ship" speed="36.11" length="15.52" width="3.50" customShape="1" shape="-1009.95,-833.57 -1002.68,-836.29 -995.41,-839.00"/>
        <lane id="69765_1" index="1" disallow="pedestrian tram rail_urban rail rail_electric rail_fast ship" speed="36.11" length="15.52" width="3.50" customShape="1" shape="-1008.72,-830.29 -1001.45,-833.01 -994.18,-835.73"/>
    </edge>

    <junction id="11" type="dead_end" x="-1007.49" y="-827.01" incLanes="69763_0" intLanes="" shape="-1006.88,-825.37 -1008.11,-828.65" rightOfWay="edgePriority"/>
    <junction id="13" type="dead_end" x="-1018.51" y="-886.36" incLanes="69190_0" intLanes="" shape="-1019.62,-885.01 -1017.40,-887.71" rightOfWay="edgePriority"/>
    <junction id="14" type="dead_end" x="-915.21" y="-764.93" incLanes="" intLanes="" shape="-912.07,-766.49 -918.35,-763.38" rightOfWay="edgePriority"/>
    <junction id="15" type="dead_end" x="-1009.33" y="-831.93" incLanes="" intLanes="" shape="-1008.11,-828.65 -1010.56,-835.20" rightOfWay="edgePriority"/>
    <junction id="16" type="dead_end" x="-1015.15" y="-890.40" incLanes="" intLanes="" shape="-1017.37,-887.69 -1012.93,-893.10" rightOfWay="edgePriority"/>
    <junction id="17" type="priority" x="-967.97" y="-845.81" incLanes="69743_0 69743_1 69212_0 69212_1 69188_0 69188_1 69765_0 69765_1" intLanes=":17_0_0 :17_1_0 :17_2_0 :17_3_0 :17_4_0 :17_5_0 :17_6_0 :17_7_0 :17_8_0 :17_9_0 :17_10_0 :17_11_0" shape="-953.53,-822.72 -945.44,-829.41 -948.70,-834.15 -950.31,-838.45 -950.27,-842.32 -948.58,-845.77 -945.24,-848.78 -940.25,-851.36 -944.20,-861.08 -950.90,-859.06 -957.62,-858.43 -964.35,-859.19 -971.11,-861.34 -977.88,-864.89 -984.67,-869.82 -991.37,-861.74 -987.72,-857.81 -985.97,-853.80 -986.02,-849.90 -987.77,-846.28 -991.14,-843.13 -996.03,-840.64 -992.35,-830.81 -984.45,-833.14 -977.12,-833.99 -970.37,-833.38 -964.19,-831.30 -958.57,-827.75">
        <request index="0" response="000000010000" foes="000100010000" cont="0"/>
        <request index="1" response="111000110000" foes="111100110000" cont="0"/>
        <request index="2" response="110011110000" foes="110011110000" cont="0"/>
        <request index="3" response="000000000000" foes="100010000000" cont="0"/>
        <request index="4" response="000000000000" foes="100110000111" cont="0"/>
        <request index="5" response="011000000000" foes="011110000110" cont="0"/>
        <request index="6" response="010000000000" foes="010000000100" cont="0"/>
        <request index="7" response="110000111000" foes="110000111100" cont="0"/>
        <request index="8" response="110000110011" foes="110000110011" cont="0"/>
        <request index="9" response="000000000000" foes="000000100010" cont="0"/>
        <request index="10" response="000000000000" foes="000111100110" cont="0"/>
        <request index="11" response="000000011000" foes="000110011110" cont="0"/>
    </junction>
    <junction id="3" type="dead_end" x="-911.07" y="-768.40" incLanes="69741_0" intLanes="" shape="-909.50,-769.18 -912.64,-767.62" rightOfWay="edgePriority"/>
    <junction id="8" type="dead_end" x="-900.65" y="-875.84" incLanes="69210_0" intLanes="" shape="-901.23,-877.49 -900.08,-874.19" rightOfWay="edgePriority"/>
    <junction id="9" type="dead_end" x="-898.99" y="-870.86" incLanes="" intLanes="" shape="-900.14,-874.17 -897.84,-867.55" rightOfWay="edgePriority"/>

    <connection from="69188" to="69210" fromLane="0" toLane="0" contPos="-4.00" shape="-985.72,-868.42 -981.93,-865.43 -978.38,-863.02 -974.65,-860.90 -971.23,-859.33 -967.69,-858.08 -964.05,-857.17 -960.86,-856.71 -957.65,-856.55 -954.43,-856.70 -950.71,-857.25 -947.08,-858.18 -943.54,-859.46" via=":17_6_0" dir="r" state="m"/>
    <connection from="69188" to="69741" fromLane="0" toLane="0" contPos="-4.00" shape="-985.72,-868.42 -978.94,-862.40 -971.66,-855.41 -963.58,-847.10 -954.74,-837.43 -946.79,-828.30" via=":17_7_0" dir="s" state="m"/>
    <connection from="69188" to="69763" fromLane="1" toLane="0" contPos="-4.00" shape="-987.98,-865.74 -984.37,-862.46 -981.51,-859.40 -979.38,-856.63 -977.95,-854.23 -977.09,-852.32 -976.50,-850.31 -976.26,-848.23 -976.43,-846.14 -977.04,-844.14 -978.02,-842.29 -979.29,-840.63 -980.78,-839.15 -982.98,-837.43 -985.96,-835.60 -989.72,-833.76 -992.96,-832.45" via=":17_8_0" dir="l" state="m"/>
    <connection from="69212" to="69741" fromLane="0" toLane="0" contPos="-4.00" shape="-940.88,-852.99 -944.34,-851.36 -947.06,-849.68 -949.04,-848.06 -950.34,-846.65 -951.40,-845.06 -952.16,-843.30 -952.54,-841.43 -952.53,-839.51 -952.20,-837.62 -951.60,-835.80 -950.49,-833.50 -948.77,-830.81 -946.79,-828.30" via=":17_3_0" dir="r" state="M"/>
    <connection from="69212" to="69763" fromLane="0" toLane="0" contPos="-4.00" shape="-940.88,-852.99 -965.66,-842.96 -988.71,-834.05 -992.96,-832.45" via=":17_4_0" dir="s" state="M"/>
    <connection from="69212" to="69190" fromLane="1" toLane="0" contPos="-4.00" shape="-942.22,-856.22 -946.72,-854.55 -950.84,-853.37 -955.04,-852.53 -958.76,-852.10 -962.50,-851.99 -966.24,-852.21 -969.94,-852.79 -973.57,-853.70 -977.10,-854.95 -980.51,-856.51 -984.23,-858.64 -987.75,-861.07 -990.25,-863.08" via=":17_5_0" dir="l" state="m"/>
    <connection from="69743" to="69763" fromLane="0" toLane="0" contPos="-4.00" shape="-952.12,-823.77 -954.70,-826.53 -957.54,-829.04 -960.18,-830.93 -963.00,-832.54 -965.98,-833.83 -969.08,-834.79 -972.27,-835.40 -975.51,-835.68 -979.29,-835.61 -983.06,-835.16 -987.29,-834.26 -991.43,-833.00 -992.96,-832.45" via=":17_0_0" dir="r" state="m"/>
    <connection from="69743" to="69190" fromLane="0" toLane="0" contPos="-4.00" shape="-952.12,-823.77 -961.72,-834.74 -970.61,-844.34 -978.38,-852.21 -985.34,-858.77 -990.25,-863.08" via=":17_1_0" dir="s" state="m"/>
    <connection from="69743" to="69210" fromLane="1" toLane="0" contPos="-4.00" shape="-949.47,-826.05 -952.22,-829.52 -954.35,-832.70 -955.87,-835.50 -956.85,-837.85 -957.57,-840.29 -957.87,-842.18 -957.93,-844.09 -957.72,-845.99 -957.22,-847.83 -956.44,-849.57 -955.43,-851.19 -953.77,-853.12 -951.86,-854.81 -949.24,-856.62 -945.87,-858.43 -943.54,-859.46" via=":17_2_0" dir="l" state="m"/>
    <connection from="69765" to="69190" fromLane="0" toLane="0" contPos="-4.00" shape="-995.41,-839.00 -991.53,-840.64 -988.44,-842.31 -986.16,-843.94 -984.63,-845.39 -983.39,-847.09 -982.78,-848.36 -982.42,-849.71 -982.33,-851.11 -982.49,-852.50 -983.13,-854.51 -984.11,-856.37 -985.76,-858.64 -988.16,-861.20 -990.25,-863.08" via=":17_9_0" dir="r" state="M"/>
    <connection from="69765" to="69210" fromLane="0" toLane="0" contPos="-4.00" shape="-995.41,-839.00 -972.43,-847.82 -948.19,-857.55 -943.54,-859.46" via=":17_10_0" dir="s" state="M"/>
    <connection from="69765" to="69741" fromLane="1" toLane="0" contPos="-4.00" shape="-994.18,-835.73 -989.05,-837.47 -984.34,-838.73 -979.54,-839.63 -975.23,-840.07 -971.43,-840.12 -967.65,-839.82 -964.45,-839.25 -961.32,-838.37 -958.29,-837.17 -955.41,-835.66 -952.70,-833.86 -950.19,-831.80 -947.51,-829.12 -946.79,-828.30" via=":17_11_0" dir="l" state="m"/>

    <connection from=":17_0" to="69763" fromLane="0" toLane="0" dir="r" state="M"/>
    <connection from=":17_1" to="69190" fromLane="0" toLane="0" dir="s" state="M"/>
    <connection from=":17_2" to="69210" fromLane="0" toLane="0" dir="l" state="M"/>
    <connection from=":17_3" to="69741" fromLane="0" toLane="0" dir="r" state="M"/>
    <connection from=":17_4" to="69763" fromLane="0" toLane="0" dir="s" state="M"/>
    <connection from=":17_5" to="69190" fromLane="0" toLane="0" dir="l" state="M"/>
    <connection from=":17_6" to="69210" fromLane="0" toLane="0" dir="r" state="M"/>
    <connection from=":17_7" to="69741" fromLane="0" toLane="0" dir="s" state="M"/>
    <connection from=":17_8" to="69763" fromLane="0" toLane="0" dir="l" state="M"/>
    <connection from=":17_9" to="69190" fromLane="0" toLane="0" dir="r" state="M"/>
    <connection from=":17_10" to="69210" fromLane="0" toLane="0" dir="s" state="M"/>
    <connection from=":17_11" to="69741" fromLane="0" toLane="0" dir="l" state="M"/>

</net>