<routes>
	<vehicle depart="0.1" departLane="0" departPos="40.955360800622884" departSpeed="0.0" id="33" type="passenger">
		<route edges="37827 38461"/>
	</vehicle>
	<vehicle depart="0.1" departLane="0" departPos="7.556004342892598" departSpeed="0.78274365" id="311" type="passenger">
		<route edges=":33_2 38461"/>
	</vehicle>
	<vehicle depart="0.1" departLane="0" departPos="59.89554041478919" departSpeed="0.0" id="312" type="passenger">
		<route edges="38558 37869"/>
	</vehicle>
	<vehicle depart="0.1" departLane="0" departPos="52.4972368599151" departSpeed="0.0" id="313" type="passenger">
		<route edges="38558 37869"/>
	</vehicle>
	<vehicle depart="0.1" departLane="0" departPos="6.578176012742568" departSpeed="0.0" id="314" type="passenger">
		<route edges="38556 38559"/>
	</vehicle>
	<vehicle depart="0.1" departLane="0" departPos="10.309292438886263" departSpeed="12.908345" id="328" type="passenger">
		<route edges=":31_6 38559"/>
	</vehicle>
	<vehicle depart="0.1" departLane="0" departPos="16.82756351298666" departSpeed="9.6343352" id="329" type="passenger">
		<route edges=":33_5 37826"/>
	</vehicle>
	<vehicle depart="0.1" departLane="0" departPos="2.5" departSpeed="8.3460653" id="333" type="passenger">
		<route edges=":33_5 37826"/>
	</vehicle>
	<vehicle depart="0.1" departLane="0" departPos="32.773538065854495" departSpeed="6.4129398" id="338" type="passenger">
		<route edges="38460 37872"/>
	</vehicle>
	<vehicle depart="0.1" departLane="0" departPos="6.671529370664211" departSpeed="1.1776142" id="322" type="truck">
		<route edges=":33_10 38461"/>
	</vehicle>
</routes>
