<routes>
	<vehicle depart="0.1" departLane="1" departPos="0" departSpeed="11.226241" id="1" type="passenger">
		<route edges="26 28 24"/>
	</vehicle>
	<vehicle depart="0.1" departLane="0" departPos="90.54934708897943" departSpeed="11.226241" id="2" type="passenger">
		<route edges="26 26 28 24"/>
	</vehicle>
	<vehicle depart="0.1" departLane="0" departPos="105.54944127388808" departSpeed="11.226241" id="3" type="passenger">
		<route edges="26 27 24"/>
	</vehicle>
</routes>
