<routes>
	<vehicle depart="0.1" departLane="0" departPos="69.91072223939499" departSpeed="0.127" id="333" type="bicycle">
		<route edges="5505 5960"/>
	</vehicle>
	<vehicle depart="0.1" departLane="0" departPos="7.364421748126849" departSpeed="0.32793878" id="315" type="passenger">
		<route edges=":237_7 5899"/>
	</vehicle>
	<vehicle depart="0.1" departLane="0" departPos="28.092858023643377" departSpeed="0.30926641" id="327" type="passenger">
		<route edges="5900 5662"/>
	</vehicle>
	<vehicle depart="0.1" departLane="0" departPos="17.721967698874558" departSpeed="2.468613" id="331" type="passenger">
		<route edges="5900 5662"/>
	</vehicle>
	<vehicle depart="0.1" departLane="0" departPos="35.26162276322591" departSpeed="0.0" id="346" type="passenger">
		<route edges="5960 6262"/>
	</vehicle>
	<vehicle depart="0.1" departLane="0" departPos="71.10080582385862" departSpeed="2.2247809" id="361" type="passenger">
		<route edges="5505 5960"/>
	</vehicle>
	<vehicle depart="0.1" departLane="0" departPos="41.26229621207624" departSpeed="3.5478057" id="373" type="passenger">
		<route edges=":230_7 5959 5662"/>
	</vehicle>
	<vehicle depart="0.1" departLane="0" departPos="27.654395085177228" departSpeed="0.1153445" id="391" type="passenger">
		<route edges="5960 6262"/>
	</vehicle>
	<vehicle depart="0.1" departLane="0" departPos="61.824318482179194" departSpeed="0.14891272" id="394" type="passenger">
		<route edges="5505 5960"/>
	</vehicle>
	<vehicle depart="0.1" departLane="0" departPos="34.78250188859217" departSpeed="1.2676318" id="398" type="passenger">
		<route edges="5900 5960"/>
	</vehicle>
</routes>
