<!-- generated on 2020-12-18 15:37:38.472217 by ipykernel_launcher.py v1_2_0+5214-53edc58fcd
-->
<tlLogics/>
