<routes>
	<vehicle depart="0.1" departLane="0" departPos="3.082762329316401" departSpeed="6.8730326" id="310" type="bicycle">
		<route edges="336"/>
	</vehicle>
	<vehicle depart="0.1" departLane="0" departPos="1.0" departSpeed="6.933926" id="327" type="bicycle">
		<route edges=":32_5 342 339 375"/>
	</vehicle>
	<vehicle depart="0.1" departLane="0" departPos="6.2" departSpeed="12.259524" id="324" type="bus">
		<route edges="339 375"/>
	</vehicle>
	<vehicle depart="0.1" departLane="0" departPos="28.68145119066433" departSpeed="0.0" id="33" type="passenger">
		<route edges="340 1"/>
	</vehicle>
	<vehicle depart="0.1" departLane="0" departPos="10.450762715922107" departSpeed="0.0" id="34" type="passenger">
		<route edges="852 342 339"/>
	</vehicle>
	<vehicle depart="0.1" departLane="0" departPos="21.354149451836864" departSpeed="0.00023065255" id="311" type="passenger">
		<route edges="340 1"/>
	</vehicle>
	<vehicle depart="0.1" departLane="0" departPos="13.892039946271781" departSpeed="0.003189901" id="313" type="passenger">
		<route edges="340 1"/>
	</vehicle>
	<vehicle depart="0.1" departLane="0" departPos="6.810744551218872" departSpeed="0.025695485" id="314" type="passenger">
		<route edges="340 1"/>
	</vehicle>
	<vehicle depart="0.1" departLane="0" departPos="60.3076003098425" departSpeed="0.0" id="316" type="passenger">
		<route edges="337 375"/>
	</vehicle>
	<vehicle depart="0.1" departLane="0" departPos="53.4076571589267" departSpeed="0.0036542621" id="318" type="passenger">
		<route edges="337 375"/>
	</vehicle>
	<vehicle depart="0.1" departLane="0" departPos="46.493157098402996" departSpeed="0.036774199" id="320" type="passenger">
		<route edges="337 375"/>
	</vehicle>
	<vehicle depart="0.1" departLane="0" departPos="39.44431662226908" departSpeed="0.17658483" id="322" type="passenger">
		<route edges="337 375"/>
	</vehicle>
	<vehicle depart="0.1" departLane="0" departPos="26.372630179964812" departSpeed="1.0580399" id="326" type="passenger">
		<route edges="337 375"/>
	</vehicle>
	<vehicle depart="0.1" departLane="0" departPos="17.350513123937723" departSpeed="1.5681527" id="328" type="passenger">
		<route edges="337 375"/>
	</vehicle>
	<vehicle depart="0.1" departLane="0" departPos="18.71744036799071" departSpeed="7.2010816" id="332" type="passenger">
		<route edges="345 342 339 375"/>
	</vehicle>
	<vehicle depart="0.1" departLane="0" departPos="8.966716116913883" departSpeed="4.6472213" id="333" type="passenger">
		<route edges="345 342 339"/>
	</vehicle>
	<vehicle depart="0.1" departLane="0" departPos="32.153449670098354" departSpeed="0.5320675" id="323" type="motorcycle">
		<route edges="337 375"/>
	</vehicle>
	<vehicle depart="0.1" departLane="0" departPos="8.330753675866251" departSpeed="1.7027356" id="331" type="motorcycle">
		<route edges="337 375"/>
	</vehicle>
</routes>
