<!-- generated on Wed Feb 10 12:27:51 2021 by Eclipse SUMO netconvert Version 1.8.0
<configuration xmlns:xsi="http://www.w3.org/2001/XMLSchema-instance" xsi:noNamespaceSchemaLocation="http://sumo.dlr.de/xsd/netconvertConfiguration.xsd">

    <input>
        <node-files value="./converted_scenarios/SUMO/DEU_Flensburg-73_1_I-1-1/DEU_Flensburg-73_1_I-1-1.nod.xml"/>
        <edge-files value="./converted_scenarios/SUMO/DEU_Flensburg-73_1_I-1-1/DEU_Flensburg-73_1_I-1-1.edg.xml"/>
        <connection-files value="./converted_scenarios/SUMO/DEU_Flensburg-73_1_I-1-1/DEU_Flensburg-73_1_I-1-1.con.xml"/>
        <tllogic-files value="./converted_scenarios/SUMO/DEU_Flensburg-73_1_I-1-1/DEU_Flensburg-73_1_I-1-1.tll.xml"/>
        <type-files value="/home/zen/commonroad-interactive-benchmarks/install/commonroad-map-tool/crmapconverter/sumo_map/templates/DEU.typ.xml"/>
    </input>

    <output>
        <output-file value="./converted_scenarios/SUMO/DEU_Flensburg-73_1_I-1-1/DEU_Flensburg-73_1_I-1-1.net.xml"/>
    </output>

    <processing>
        <geometry.remove.keep-edges.explicit value="true"/>
        <geometry.avoid-overlap value="true"/>
        <offset.disable-normalization value="true"/>
    </processing>

    <junctions>
        <no-turnarounds value="true"/>
        <junctions.internal-link-detail value="20"/>
    </junctions>

    <report>
        <aggregate-warnings value="5"/>
    </report>

    <random_number>
        <seed value="1234"/>
    </random_number>

</configuration>
--><net xmlns:xsi="http://www.w3.org/2001/XMLSchema-instance" version="1.6" junctionCornerDetail="5" junctionLinkDetail="20" limitTurnSpeed="5.50" xsi:noNamespaceSchemaLocation="http://sumo.dlr.de/xsd/net_file.xsd">

    <location netOffset="0.00,0.00" convBoundary="-134.19,211.63,56.42,472.68" origBoundary="-134.19,211.63,56.42,472.68" projParameter="!"/>

    <type id="highway.bridleway" priority="1" speed="2.78" allow="pedestrian" oneway="1" width="2.00"/>
    <type id="highway.bus_guideway" priority="1" speed="27.78" allow="bus" oneway="1"/>
    <type id="highway.cycleway" priority="1" speed="8.33" allow="bicycle" oneway="0" width="1.00"/>
    <type id="highway.footway" priority="1" speed="2.78" allow="pedestrian" oneway="1" width="2.00"/>
    <type id="highway.ford" priority="1" speed="2.78" allow="army" oneway="0"/>
    <type id="highway.living_street" priority="2" speed="2.78" disallow="tram rail_urban rail rail_electric rail_fast ship" oneway="0"/>
    <type id="highway.motorway" priority="14" speed="39.44" allow="private emergency authority army vip passenger hov taxi bus coach delivery truck trailer motorcycle evehicle custom1 custom2" oneway="1"/>
    <type id="highway.motorway_link" priority="9" speed="22.22" allow="private emergency authority army vip passenger hov taxi bus coach delivery truck trailer motorcycle evehicle custom1 custom2" oneway="1"/>
    <type id="highway.path" priority="1" speed="2.78" allow="pedestrian bicycle" oneway="0" width="2.00"/>
    <type id="highway.pedestrian" priority="1" speed="2.78" allow="pedestrian" oneway="1" width="2.00"/>
    <type id="highway.primary" priority="12" speed="27.78" disallow="pedestrian tram rail_urban rail rail_electric rail_fast ship" oneway="0"/>
    <type id="highway.primary_link" priority="7" speed="22.22" disallow="pedestrian tram rail_urban rail rail_electric rail_fast ship" oneway="0"/>
    <type id="highway.raceway" priority="15" speed="83.33" allow="vip" oneway="0"/>
    <type id="highway.residential" priority="3" speed="13.89" disallow="pedestrian tram rail_urban rail rail_electric rail_fast ship" oneway="0"/>
    <type id="highway.secondary" priority="11" speed="27.78" disallow="pedestrian tram rail_urban rail rail_electric rail_fast ship" oneway="0"/>
    <type id="highway.secondary_link" priority="6" speed="22.22" disallow="pedestrian tram rail_urban rail rail_electric rail_fast ship" oneway="0"/>
    <type id="highway.service" priority="1" speed="5.56" allow="pedestrian delivery bicycle" oneway="0"/>
    <type id="highway.stairs" priority="1" speed="1.39" allow="pedestrian" oneway="1" width="2.00"/>
    <type id="highway.step" priority="1" speed="1.39" allow="pedestrian" oneway="1" width="2.00"/>
    <type id="highway.steps" priority="1" speed="1.39" allow="pedestrian" oneway="1" width="2.00"/>
    <type id="highway.tertiary" priority="10" speed="22.22" disallow="pedestrian tram rail_urban rail rail_electric rail_fast ship" oneway="0"/>
    <type id="highway.tertiary_link" priority="5" speed="22.22" disallow="pedestrian tram rail_urban rail rail_electric rail_fast ship" oneway="0"/>
    <type id="highway.track" priority="1" speed="5.56" allow="pedestrian motorcycle moped bicycle" oneway="0"/>
    <type id="highway.trunk" priority="13" speed="27.78" disallow="pedestrian bicycle tram rail_urban rail rail_electric rail_fast ship" oneway="0"/>
    <type id="highway.trunk_link" priority="8" speed="22.22" disallow="pedestrian bicycle tram rail_urban rail rail_electric rail_fast ship" oneway="0"/>
    <type id="highway.unclassified" priority="4" speed="13.89" disallow="pedestrian tram rail_urban rail rail_electric rail_fast ship" oneway="0"/>
    <type id="highway.unsurfaced" priority="1" speed="8.33" disallow="tram rail_urban rail rail_electric rail_fast ship" oneway="0"/>
    <type id="railway.highspeed" priority="21" speed="69.44" allow="rail_fast" oneway="1"/>
    <type id="railway.light_rail" priority="19" speed="27.78" allow="rail_urban" oneway="1"/>
    <type id="railway.preserved" priority="16" speed="27.78" allow="rail" oneway="1"/>
    <type id="railway.rail" priority="20" speed="44.44" allow="rail" oneway="1"/>
    <type id="railway.subway" priority="18" speed="27.78" allow="rail_urban" oneway="1"/>
    <type id="railway.tram" priority="17" speed="13.89" allow="tram" oneway="1"/>

    <edge id=":31_0" function="internal">
        <lane id=":31_0_0" index="0" disallow="pedestrian tram rail_urban rail rail_electric rail_fast ship" speed="36.11" length="14.72" width="3.50" shape="-42.75,458.75 -50.04,459.90 -57.29,461.04"/>
    </edge>
    <edge id=":31_1" function="internal">
        <lane id=":31_1_0" index="0" disallow="pedestrian tram rail_urban rail rail_electric rail_fast ship" speed="7.13" length="13.39" width="3.49" shape="-42.75,458.75 -44.62,458.93 -46.46,458.83 -47.65,458.51 -48.73,457.94 -49.61,457.08 -50.22,456.01 -50.57,454.83 -50.74,453.00 -50.64,451.32"/>
    </edge>
    <edge id=":31_2" function="internal">
        <lane id=":31_2_0" index="0" disallow="pedestrian tram rail_urban rail rail_electric rail_fast ship" speed="7.73" length="10.28" width="3.49" shape="-57.84,457.59 -55.65,457.07 -54.12,456.39 -52.76,455.42 -51.69,454.13 -50.98,452.62 -50.69,451.31"/>
    </edge>
    <edge id=":31_3" function="internal">
        <lane id=":31_3_0" index="0" disallow="pedestrian tram rail_urban rail rail_electric rail_fast ship" speed="36.11" length="14.70" width="3.50" shape="-57.84,457.59 -50.58,456.44 -43.32,455.30"/>
    </edge>
    <edge id=":32_0" function="internal">
        <lane id=":32_0_0" index="0" disallow="pedestrian tram rail_urban rail rail_electric rail_fast ship" speed="36.11" length="17.17" width="3.50" shape="-81.26,464.70 -89.79,465.99 -98.23,467.28"/>
    </edge>
    <edge id=":32_1" function="internal">
        <lane id=":32_1_0" index="0" disallow="pedestrian tram rail_urban rail rail_electric rail_fast ship" speed="8.31" length="17.59" width="3.50" shape="-81.26,464.70 -83.58,464.92 -85.87,464.84 -87.36,464.54 -88.78,463.97 -89.43,463.57 -90.55,462.54 -91.40,461.27 -91.94,459.84 -92.26,458.35 -92.40,456.06 -92.38,455.30"/>
    </edge>
    <edge id=":32_2" function="internal">
        <lane id=":32_2_0" index="0" disallow="pedestrian tram rail_urban rail rail_electric rail_fast ship" speed="6.77" length="11.24" width="3.50" shape="-88.88,455.46 -88.89,456.05 -88.88,456.64 -88.84,457.23 -88.77,457.82 -88.64,458.40 -88.46,458.96 -88.23,459.51 -87.91,460.00 -87.49,460.42 -87.00,460.76 -86.47,461.02 -85.91,461.20 -85.33,461.32 -84.74,461.39 -84.15,461.41 -83.56,461.41 -82.97,461.38 -82.38,461.32 -81.79,461.24"/>
    </edge>
    <edge id=":32_3" function="internal">
        <lane id=":32_3_0" index="0" disallow="pedestrian tram rail_urban rail rail_electric rail_fast ship" speed="9.31" length="16.51" width="3.50" shape="-88.88,455.46 -88.93,456.13 -89.27,458.55 -89.79,460.43 -90.61,462.24 -91.77,463.89 -92.80,464.91 -94.48,466.05 -96.35,466.83 -98.23,467.28"/>
    </edge>
    <edge id=":32_4" function="internal">
        <lane id=":32_4_0" index="0" disallow="pedestrian tram rail_urban rail rail_electric rail_fast ship" speed="7.93" length="11.72" width="3.50" shape="-98.80,463.83 -97.43,463.50 -96.14,462.95 -95.00,462.13 -94.35,461.45 -93.57,460.28 -93.02,458.99 -92.66,457.63 -92.41,455.77 -92.38,455.30"/>
    </edge>
    <edge id=":32_5" function="internal">
        <lane id=":32_5_0" index="0" disallow="pedestrian tram rail_urban rail rail_electric rail_fast ship" speed="36.11" length="17.21" width="3.50" shape="-98.80,463.83 -90.31,462.53 -81.79,461.24"/>
    </edge>
    <edge id=":33_0" function="internal">
        <lane id=":33_0_0" index="0" disallow="pedestrian tram rail_urban rail rail_electric rail_fast ship" speed="6.95" length="10.77" width="3.50" shape="-18.10,288.04 -19.79,287.70 -20.85,287.28 -21.81,286.66 -22.61,285.85 -23.22,284.88 -23.62,283.81 -23.90,282.11 -23.88,280.50"/>
    </edge>
    <edge id=":33_1" function="internal">
        <lane id=":33_1_0" index="0" disallow="pedestrian tram rail_urban rail rail_electric rail_fast ship" speed="36.11" length="11.00" width="3.50" shape="-25.85,291.33 -24.90,285.69 -24.03,280.48"/>
    </edge>
    <edge id=":33_2" function="internal">
        <lane id=":33_2_0" index="0" disallow="pedestrian tram rail_urban rail rail_electric rail_fast ship" speed="7.49" length="11.75" width="3.50" shape="-25.77,291.34 -25.62,290.65 -25.04,289.00 -24.23,287.47 -23.13,286.13 -22.21,285.42 -21.17,284.92 -20.05,284.61 -18.31,284.51 -17.70,284.56"/>
    </edge>
    <edge id=":34_0" function="internal">
        <lane id=":34_0_0" index="0" disallow="pedestrian tram rail_urban rail rail_electric rail_fast ship" speed="36.11" length="16.00" width="3.50" shape="0.54,448.37 -9.91,451.59 -14.80,452.92"/>
    </edge>
    <edge id=":34_1" function="internal">
        <lane id=":34_1_0" index="0" disallow="pedestrian tram rail_urban rail rail_electric rail_fast ship" speed="6.91" length="13.89" width="3.50" shape="0.54,448.37 -0.26,448.61 -1.02,448.81 -1.78,448.97 -2.55,449.09 -3.33,449.15 -4.11,449.15 -4.88,449.05 -5.63,448.85 -6.33,448.51 -6.94,448.03 -7.42,447.42 -7.76,446.71 -8.01,445.97 -8.16,445.21 -8.23,444.44 -8.25,443.66 -8.22,442.88 -8.17,442.29"/>
    </edge>
    <edge id=":34_2" function="internal">
        <lane id=":34_2_0" index="0" disallow="pedestrian tram rail_urban rail rail_electric rail_fast ship" speed="8.40" length="11.01" width="3.50" shape="-15.69,449.54 -13.62,448.84 -12.18,448.08 -10.90,447.09 -9.82,445.88 -8.99,444.48 -8.41,442.96 -8.26,442.27"/>
    </edge>
    <edge id=":34_3" function="internal">
        <lane id=":34_3_0" index="0" disallow="pedestrian tram rail_urban rail rail_electric rail_fast ship" speed="36.11" length="15.76" width="3.50" shape="-15.69,449.54 -10.85,448.22 -0.58,445.05"/>
    </edge>

    <edge id="1" from="31" to="33" priority="3" type="highway.residential" spreadType="center" length="161.91">
        <lane id="1_0" index="0" disallow="pedestrian tram rail_urban rail rail_electric rail_fast ship" speed="36.11" length="161.91" width="3.49" customShape="1" shape="-50.66,451.31 -47.04,423.15 -42.39,391.34 -35.66,349.13 -29.29,312.26 -25.86,291.33"/>
    </edge>
    <edge id="3" from="33" to="24" priority="3" type="highway.residential" spreadType="center" length="72.04">
        <lane id="3_0" index="0" disallow="pedestrian tram rail_urban rail rail_electric rail_fast ship" speed="36.11" length="72.04" width="3.50" customShape="1" shape="-24.03,280.48 -21.34,264.52 -19.76,257.10 -17.71,249.30 -15.02,240.67 -10.66,228.34 -6.96,218.99 -3.76,211.63"/>
    </edge>
    <edge id="336" from="34" to="15" priority="3" type="highway.residential" spreadType="center" length="60.86" shape="-8.42,445.84 55.13,420.66">
        <lane id="336_0" index="0" disallow="pedestrian tram rail_urban rail rail_electric rail_fast ship" speed="36.11" length="60.86" width="3.50" customShape="1" shape="-0.58,445.05 5.16,443.11 11.74,440.58 20.42,436.80 34.86,429.87 46.70,424.27 55.13,420.66"/>
    </edge>
    <edge id="337" from="29" to="34" priority="3" type="highway.residential" spreadType="center" length="61.10" shape="56.42,423.92 -7.13,449.09">
        <lane id="337_0" index="0" disallow="pedestrian tram rail_urban rail rail_electric rail_fast ship" speed="36.11" length="61.10" width="3.50" customShape="1" shape="56.42,423.92 48.14,427.46 36.38,433.02 21.87,439.98 13.07,443.82 6.34,446.41 0.48,448.39"/>
    </edge>
    <edge id="339" from="31" to="34" priority="3" type="highway.residential" spreadType="center" length="28.30" shape="-50.74,455.02 -8.03,445.72">
        <lane id="339_0" index="0" disallow="pedestrian tram rail_urban rail rail_electric rail_fast ship" speed="36.11" length="28.30" width="3.50" customShape="1" shape="-43.32,455.30 -35.38,453.98 -26.99,452.31 -15.63,449.53"/>
    </edge>
    <edge id="340" from="34" to="31" priority="3" type="highway.residential" spreadType="center" length="28.61" shape="-7.29,449.14 -50.00,458.44">
        <lane id="340_0" index="0" disallow="pedestrian tram rail_urban rail rail_electric rail_fast ship" speed="36.11" length="28.61" width="3.50" customShape="1" shape="-14.80,452.92 -26.23,455.73 -34.77,457.43 -42.79,458.76"/>
    </edge>
    <edge id="342" from="32" to="31" priority="3" type="highway.residential" spreadType="center" length="24.26" shape="-90.50,459.57 -50.57,454.99">
        <lane id="342_0" index="0" disallow="pedestrian tram rail_urban rail rail_electric rail_fast ship" speed="36.11" length="24.26" width="3.50" customShape="1" shape="-81.79,461.24 -69.82,459.41 -57.81,457.58"/>
    </edge>
    <edge id="343" from="31" to="32" priority="3" type="highway.residential" spreadType="center" length="24.28" shape="-50.17,458.47 -90.11,463.04">
        <lane id="343_0" index="0" disallow="pedestrian tram rail_urban rail rail_electric rail_fast ship" speed="36.11" length="24.28" width="3.50" customShape="1" shape="-57.29,461.04 -69.30,462.87 -81.29,464.70"/>
    </edge>
    <edge id="345" from="9" to="32" priority="3" type="highway.residential" spreadType="center" length="35.84" shape="-134.19,469.22 -90.54,459.58">
        <lane id="345_0" index="0" disallow="pedestrian tram rail_urban rail rail_electric rail_fast ship" speed="36.11" length="35.84" width="3.50" customShape="1" shape="-134.19,469.22 -116.51,466.52 -98.76,463.82"/>
    </edge>
    <edge id="346" from="32" to="11" priority="3" type="highway.residential" spreadType="center" length="35.87" shape="-89.79,462.99 -133.69,472.68">
        <lane id="346_0" index="0" disallow="pedestrian tram rail_urban rail rail_electric rail_fast ship" speed="36.11" length="35.87" width="3.50" customShape="1" shape="-98.23,467.28 -115.98,469.98 -133.69,472.68"/>
    </edge>
    <edge id="375" from="34" to="18" priority="3" type="highway.residential" spreadType="center" length="56.04">
        <lane id="375_0" index="0" disallow="pedestrian tram rail_urban rail rail_electric rail_fast ship" speed="36.11" length="56.04" width="3.50" customShape="1" shape="-8.20,442.28 -4.03,414.09 -0.01,386.84"/>
    </edge>
    <edge id="5" from="30" to="33" priority="3" type="highway.residential" spreadType="center" length="27.91" shape="9.37,292.58 -21.77,287.71">
        <lane id="5_0" index="0" disallow="pedestrian tram rail_urban rail rail_electric rail_fast ship" speed="36.11" length="27.91" width="3.50" customShape="1" shape="9.37,292.58 7.54,291.98 1.66,290.65 -5.18,289.53 -18.12,288.04"/>
    </edge>
    <edge id="6" from="33" to="13" priority="3" type="highway.residential" spreadType="center" length="28.77" shape="-21.23,284.26 10.62,289.32">
        <lane id="6_0" index="0" disallow="pedestrian tram rail_urban rail rail_electric rail_fast ship" speed="36.11" length="28.77" width="3.50" customShape="1" shape="-17.70,284.56 -4.69,286.06 2.34,287.22 8.50,288.61 10.62,289.32"/>
    </edge>
    <edge id="852" from="26" to="32" priority="3" type="highway.residential" spreadType="center" length="10.55" shape="-88.38,444.92 -88.49,461.50">
        <lane id="852_0" index="0" disallow="pedestrian tram rail_urban rail rail_electric rail_fast ship" speed="36.11" length="10.55" width="3.50" customShape="1" shape="-88.38,444.92 -88.63,450.19 -88.88,455.46"/>
    </edge>
    <edge id="853" from="32" to="28" priority="3" type="highway.residential" spreadType="center" length="10.56" shape="-91.97,461.47 -91.88,444.75">
        <lane id="853_0" index="0" disallow="pedestrian tram rail_urban rail rail_electric rail_fast ship" speed="36.11" length="10.56" width="3.50" customShape="1" shape="-92.38,455.30 -92.13,450.03 -91.88,444.75"/>
    </edge>

    <junction id="11" type="dead_end" x="-133.69" y="472.68" incLanes="346_0" intLanes="" shape="-133.43,474.41 -133.95,470.95" rightOfWay="edgePriority"/>
    <junction id="13" type="dead_end" x="10.62" y="289.32" incLanes="6_0" intLanes="" shape="11.17,287.66 10.07,290.98" rightOfWay="edgePriority"/>
    <junction id="15" type="dead_end" x="55.13" y="420.66" incLanes="336_0" intLanes="" shape="54.45,419.05 55.82,422.27" rightOfWay="edgePriority"/>
    <junction id="18" type="dead_end" x="-0.01" y="386.84" incLanes="375_0" intLanes="" shape="-1.73,386.59 1.72,387.10" rightOfWay="edgePriority"/>
    <junction id="24" type="dead_end" x="-3.76" y="211.63" incLanes="3_0" intLanes="" shape="-5.36,210.93 -2.15,212.33" rightOfWay="edgePriority"/>
    <junction id="26" type="dead_end" x="-88.38" y="444.92" incLanes="" intLanes="" shape="-90.13,444.84 -86.63,445.00" rightOfWay="edgePriority"/>
    <junction id="28" type="dead_end" x="-91.88" y="444.75" incLanes="853_0" intLanes="" shape="-93.62,444.67 -90.13,444.84" rightOfWay="edgePriority"/>
    <junction id="29" type="dead_end" x="56.42" y="423.92" incLanes="" intLanes="" shape="55.73,422.31 57.11,425.53" rightOfWay="edgePriority"/>
    <junction id="30" type="dead_end" x="9.37" y="292.58" incLanes="" intLanes="" shape="9.92,290.92 8.81,294.24" rightOfWay="edgePriority"/>
    <junction id="31" type="priority" x="-50.37" y="456.73" incLanes="340_0 342_0" intLanes=":31_0_0 :31_1_0 :31_2_0 :31_3_0" shape="-42.47,460.48 -43.61,453.57 -46.74,453.77 -47.79,453.53 -48.51,453.09 -48.89,452.42 -48.93,451.54 -52.39,451.09 -53.25,453.39 -54.07,454.27 -55.15,454.98 -56.48,455.50 -58.08,455.85 -57.02,462.77">
        <request index="0" response="0000" foes="0000" cont="0"/>
        <request index="1" response="1100" foes="1100" cont="0"/>
        <request index="2" response="0000" foes="0010" cont="0"/>
        <request index="3" response="0000" foes="0010" cont="0"/>
    </junction>
    <junction id="32" type="priority" x="-90.23" y="461.30" incLanes="343_0 852_0 345_0" intLanes=":32_0_0 :32_1_0 :32_2_0 :32_3_0 :32_4_0 :32_5_0" shape="-81.00,466.42 -82.05,459.51 -84.98,459.43 -85.98,458.92 -86.67,458.11 -87.05,456.98 -87.13,455.55 -94.12,455.21 -94.80,458.72 -95.50,460.02 -96.43,461.01 -97.61,461.70 -99.02,462.09 -97.97,469.01">
        <request index="0" response="000000" foes="001000" cont="0"/>
        <request index="1" response="110000" foes="111000" cont="0"/>
        <request index="2" response="100000" foes="100000" cont="0"/>
        <request index="3" response="100011" foes="100011" cont="0"/>
        <request index="4" response="000000" foes="000010" cont="0"/>
        <request index="5" response="000000" foes="001110" cont="0"/>
    </junction>
    <junction id="33" type="priority" x="-21.41" y="286.00" incLanes="5_0 1_0" intLanes=":33_0_0 :33_1_0 :33_2_0" shape="-18.30,289.78 -17.50,282.83 -20.28,282.34 -21.23,282.02 -21.88,281.65 -22.24,281.23 -22.30,280.77 -25.75,280.18 -27.58,291.04 -24.13,291.61 -23.31,290.31 -22.47,289.92 -21.36,289.70 -19.97,289.65">
        <request index="0" response="110" foes="110" cont="0"/>
        <request index="1" response="000" foes="001" cont="0"/>
        <request index="2" response="000" foes="001" cont="0"/>
    </junction>
    <junction id="34" type="priority" x="-7.73" y="447.45" incLanes="337_0 339_0" intLanes=":34_0_0 :34_1_0 :34_2_0 :34_3_0" shape="1.10,450.02 -1.14,443.39 -4.29,444.16 -5.35,444.15 -6.06,443.87 -6.44,443.34 -6.47,442.54 -9.93,442.03 -10.90,444.66 -11.79,445.71 -12.94,446.59 -14.36,447.30 -16.05,447.83 -14.38,454.62">
        <request index="0" response="0000" foes="0000" cont="0"/>
        <request index="1" response="1100" foes="1100" cont="0"/>
        <request index="2" response="0000" foes="0010" cont="0"/>
        <request index="3" response="0000" foes="0010" cont="0"/>
    </junction>
    <junction id="9" type="dead_end" x="-134.19" y="469.22" incLanes="" intLanes="" shape="-133.93,470.94 -134.45,467.49" rightOfWay="edgePriority"/>

    <connection from="1" to="3" fromLane="0" toLane="0" contPos="-4.00" shape="-26.12,292.91 -24.90,285.69 -23.69,278.47" via=":33_1_0" dir="s" state="M"/>
    <connection from="1" to="6" fromLane="0" toLane="0" contPos="-4.00" shape="-26.12,292.91 -25.62,290.65 -25.04,289.00 -24.23,287.47 -23.13,286.13 -22.21,285.42 -21.17,284.92 -20.05,284.61 -18.31,284.51 -17.70,284.56" via=":33_2_0" dir="l" state="M"/>
    <connection from="337" to="340" fromLane="0" toLane="0" contPos="-4.00" shape="0.48,448.39 -9.91,451.59 -14.80,452.92" via=":34_0_0" dir="s" state="M"/>
    <connection from="337" to="375" fromLane="0" toLane="0" contPos="-4.00" shape="0.48,448.39 -0.26,448.61 -1.02,448.81 -1.78,448.97 -2.55,449.09 -3.33,449.15 -4.11,449.15 -4.88,449.05 -5.63,448.85 -6.33,448.51 -6.94,448.03 -7.42,447.42 -7.76,446.71 -8.01,445.97 -8.16,445.21 -8.23,444.44 -8.25,443.66 -8.22,442.88 -8.16,442.10 -8.06,441.33" via=":34_1_0" dir="l" state="m"/>
    <connection from="339" to="375" fromLane="0" toLane="0" contPos="-4.00" shape="-15.69,449.54 -13.62,448.84 -12.18,448.08 -10.90,447.09 -9.82,445.88 -8.99,444.48 -8.41,442.96 -8.06,441.33" via=":34_2_0" dir="r" state="M"/>
    <connection from="339" to="336" fromLane="0" toLane="0" contPos="-4.00" shape="-15.69,449.54 -10.85,448.22 -0.58,445.05" via=":34_3_0" dir="s" state="M"/>
    <connection from="340" to="343" fromLane="0" toLane="0" contPos="-4.00" shape="-42.79,458.76 -50.04,459.90 -57.29,461.04" via=":31_0_0" dir="s" state="M"/>
    <connection from="340" to="1" fromLane="0" toLane="0" contPos="-4.00" shape="-42.79,458.76 -44.62,458.93 -46.46,458.83 -47.65,458.51 -48.73,457.94 -49.61,457.08 -50.22,456.01 -50.57,454.83 -50.74,453.00 -50.62,450.95" via=":31_1_0" dir="l" state="m"/>
    <connection from="342" to="1" fromLane="0" toLane="0" contPos="-4.00" shape="-57.84,457.59 -55.65,457.07 -54.12,456.39 -52.76,455.42 -51.69,454.13 -50.98,452.62 -50.62,450.95" via=":31_2_0" dir="r" state="M"/>
    <connection from="342" to="339" fromLane="0" toLane="0" contPos="-4.00" shape="-57.84,457.59 -50.58,456.44 -43.32,455.30" via=":31_3_0" dir="s" state="M"/>
    <connection from="343" to="346" fromLane="0" toLane="0" contPos="-4.00" shape="-81.29,464.70 -89.79,465.99 -98.23,467.28" via=":32_0_0" dir="s" state="M"/>
    <connection from="343" to="853" fromLane="0" toLane="0" contPos="-4.00" shape="-81.29,464.70 -83.58,464.92 -85.87,464.84 -87.36,464.54 -88.78,463.97 -89.43,463.57 -90.55,462.54 -91.40,461.27 -91.94,459.84 -92.26,458.35 -92.40,456.06 -92.38,455.30" via=":32_1_0" dir="l" state="m"/>
    <connection from="345" to="853" fromLane="0" toLane="0" contPos="-4.00" shape="-98.80,463.83 -97.43,463.50 -96.14,462.95 -95.00,462.13 -94.35,461.45 -93.57,460.28 -93.02,458.99 -92.66,457.63 -92.41,455.77 -92.38,455.30" via=":32_4_0" dir="r" state="M"/>
    <connection from="345" to="342" fromLane="0" toLane="0" contPos="-4.00" shape="-98.80,463.83 -90.31,462.53 -81.79,461.24" via=":32_5_0" dir="s" state="M"/>
    <connection from="5" to="3" fromLane="0" toLane="0" contPos="-4.00" shape="-18.12,288.04 -19.79,287.70 -20.85,287.28 -21.81,286.66 -22.61,285.85 -23.22,284.88 -23.62,283.81 -23.90,282.11 -23.86,279.83 -23.69,278.47" via=":33_0_0" dir="l" state="m"/>
    <connection from="852" to="342" fromLane="0" toLane="0" contPos="-4.00" shape="-88.88,455.46 -88.89,456.05 -88.88,456.64 -88.84,457.23 -88.77,457.82 -88.64,458.40 -88.46,458.96 -88.23,459.51 -87.91,460.00 -87.49,460.42 -87.00,460.76 -86.47,461.02 -85.91,461.20 -85.33,461.32 -84.74,461.39 -84.15,461.41 -83.56,461.41 -82.97,461.38 -82.38,461.32 -81.79,461.24" via=":32_2_0" dir="r" state="m"/>
    <connection from="852" to="346" fromLane="0" toLane="0" contPos="-4.00" shape="-88.88,455.46 -88.93,456.13 -89.27,458.55 -89.79,460.43 -90.61,462.24 -91.77,463.89 -92.80,464.91 -94.48,466.05 -96.35,466.83 -98.23,467.28" via=":32_3_0" dir="l" state="m"/>

    <connection from=":31_0" to="343" fromLane="0" toLane="0" dir="s" state="M"/>
    <connection from=":31_1" to="1" fromLane="0" toLane="0" dir="l" state="M"/>
    <connection from=":31_2" to="1" fromLane="0" toLane="0" dir="r" state="M"/>
    <connection from=":31_3" to="339" fromLane="0" toLane="0" dir="s" state="M"/>
    <connection from=":32_0" to="346" fromLane="0" toLane="0" dir="s" state="M"/>
    <connection from=":32_1" to="853" fromLane="0" toLane="0" dir="l" state="M"/>
    <connection from=":32_2" to="342" fromLane="0" toLane="0" dir="r" state="M"/>
    <connection from=":32_3" to="346" fromLane="0" toLane="0" dir="l" state="M"/>
    <connection from=":32_4" to="853" fromLane="0" toLane="0" dir="r" state="M"/>
    <connection from=":32_5" to="342" fromLane="0" toLane="0" dir="s" state="M"/>
    <connection from=":33_0" to="3" fromLane="0" toLane="0" dir="l" state="M"/>
    <connection from=":33_1" to="3" fromLane="0" toLane="0" dir="s" state="M"/>
    <connection from=":33_2" to="6" fromLane="0" toLane="0" dir="l" state="M"/>
    <connection from=":34_0" to="340" fromLane="0" toLane="0" dir="s" state="M"/>
    <connection from=":34_1" to="375" fromLane="0" toLane="0" dir="l" state="M"/>
    <connection from=":34_2" to="375" fromLane="0" toLane="0" dir="r" state="M"/>
    <connection from=":34_3" to="336" fromLane="0" toLane="0" dir="s" state="M"/>

</net>