<routes>
	<vehicle depart="0.1" departLane="0" departPos="78.48800645562955" departSpeed="0.0" id="30" type="passenger">
		<route edges="879 993 908"/>
	</vehicle>
	<vehicle depart="0.1" departLane="1" departPos="71.04637818121218" departSpeed="0.0027" id="32" type="passenger">
		<route edges="879 929 927 1002 857 1048 919 978 844"/>
	</vehicle>
	<vehicle depart="0.1" departLane="0" departPos="63.477718995671516" departSpeed="0.0043" id="33" type="passenger">
		<route edges="879 929 927 942 899 951 925 976 875"/>
	</vehicle>
	<vehicle depart="0.1" departLane="0" departPos="171.27243072423482" departSpeed="0.0004" id="34" type="passenger">
		<route edges="838 1020 857 1048 919 990 900"/>
	</vehicle>
	<vehicle depart="0.1" departLane="0" departPos="19.976796740152594" departSpeed="2.5195" id="35" type="passenger">
		<route edges="841 1026 834 1047 1058 1047 1058 894 953 851"/>
	</vehicle>
	<vehicle depart="0.1" departLane="0" departPos="0" departSpeed="14.1301" id="36" type="passenger">
		<route edges="927 942 1002 1042 1010 1010 1062 1048 1048 919 990 900 979 864 1034 848"/>
	</vehicle>
	<vehicle depart="0.1" departLane="0" departPos="5.421291820637311" departSpeed="3.9001" id="37" type="passenger">
		<route edges="1026 834 1058 1047 894 947 904 946 927"/>
	</vehicle>
	<vehicle depart="0.1" departLane="0" departPos="68.71179986994467" departSpeed="0.0" id="38" type="passenger">
		<route edges="911 1003 907 994 897 1007 833"/>
	</vehicle>
	<vehicle depart="0.1" departLane="0" departPos="0" departSpeed="16.3642" id="310" type="passenger">
		<route edges="923 948 840 1018 880 988 901"/>
	</vehicle>
	<vehicle depart="0.1" departLane="0" departPos="0" departSpeed="0.0" id="311" type="passenger">
		<route edges="1020 1054 899 951 925 976 875 980 866 1059 860"/>
	</vehicle>
	<vehicle depart="0.1" departLane="0" departPos="191.06183822597643" departSpeed="3.6138" id="312" type="passenger">
		<route edges="877 962 914 1001 853 1037 923"/>
	</vehicle>
	<vehicle depart="0.1" departLane="1" departPos="37.291322299601084" departSpeed="0.0" id="313" type="passenger">
		<route edges="869 996 889 1012 923 948 840"/>
	</vehicle>
	<vehicle depart="0.1" departLane="1" departPos="68.35882290499629" departSpeed="0.0" id="316" type="passenger">
		<route edges="911 1003 907 994 897 973 833"/>
	</vehicle>
	<vehicle depart="0.1" departLane="0" departPos="163.33808683585048" departSpeed="0.168" id="317" type="passenger">
		<route edges="838 1020 857 1048 919 990 900"/>
	</vehicle>
	<vehicle depart="0.1" departLane="0" departPos="14.350493691763521" departSpeed="9.9301" id="318" type="passenger">
		<route edges="1048 919 990 900 979 864 1034 848"/>
	</vehicle>
	<vehicle depart="0.1" departLane="1" departPos="0" departSpeed="12.7804" id="319" type="passenger">
		<route edges="919 919 978 990 900 979 864 1034 848"/>
	</vehicle>
	<vehicle depart="0.1" departLane="0" departPos="0" departSpeed="10.155" id="320" type="passenger">
		<route edges="894 953 851"/>
	</vehicle>
	<vehicle depart="0.1" departLane="0" departPos="93.3457063876501" departSpeed="12.7943" id="321" type="passenger">
		<route edges="923 948 840 1033 1018 880 964 864 1034 848 1057 912 1013 875"/>
	</vehicle>
	<vehicle depart="0.1" departLane="0" departPos="31.305328566667527" departSpeed="14.2279" id="322" type="passenger">
		<route edges="921 965 893"/>
	</vehicle>
	<vehicle depart="0.1" departLane="1" departPos="171.45608535873765" departSpeed="0.1805" id="323" type="passenger">
		<route edges="838 1020 857 1062 883"/>
	</vehicle>
	<vehicle depart="0.1" departLane="1" departPos="0" departSpeed="23.8198" id="325" type="passenger">
		<route edges="923 948 840 1033 859 1022 854 1017 899 951 925"/>
	</vehicle>
	<vehicle depart="0.1" departLane="0" departPos="0" departSpeed="17.7291" id="326" type="passenger">
		<route edges="919 990 900 941 881 943 885 983 925 976 875"/>
	</vehicle>
	<vehicle depart="0.1" departLane="0" departPos="147.55400179432067" departSpeed="0.5271" id="327" type="passenger">
		<route edges="838 1020 857 1048 919 990 900"/>
	</vehicle>
	<vehicle depart="0.1" departLane="0" departPos="150.7116429221695" departSpeed="10.3806" id="328" type="passenger">
		<route edges="927 942 1002 1042 1010 1010 1062 1016 1048 1048 919 990 900 979 864 1034 848"/>
	</vehicle>
	<vehicle depart="0.1" departLane="0" departPos="0" departSpeed="1.3469" id="329" type="passenger">
		<route edges="841 1026 834 1047 894"/>
	</vehicle>
	<vehicle depart="0.1" departLane="1" departPos="58.37714691525515" departSpeed="0.0" id="330" type="passenger">
		<route edges="911 1003 907 994 897 973 833"/>
	</vehicle>
	<vehicle depart="0.1" departLane="0" departPos="70.7890543180692" departSpeed="13.2887" id="331" type="passenger">
		<route edges="923 948 840 1033 859 1016 1035 1016 1048 919 990 900 979 864 1034 848"/>
	</vehicle>
	<vehicle depart="0.1" departLane="0" departPos="14.502144353595373" departSpeed="7.578" id="332" type="passenger">
		<route edges="1010 1062 1016 1048 919 919 990 900 979 864 1034 848"/>
	</vehicle>
	<vehicle depart="0.1" departLane="0" departPos="155.5814161344678" departSpeed="0.2592" id="333" type="passenger">
		<route edges="838 1020 857 1048 919 990 900"/>
	</vehicle>
	<vehicle depart="0.1" departLane="1" departPos="27.11946290649022" departSpeed="0.0093" id="334" type="passenger">
		<route edges="869 996 889 1012 923 948 840"/>
	</vehicle>
	<vehicle depart="0.1" departLane="1" departPos="20.028519260753654" departSpeed="2.415" id="336" type="passenger">
		<route edges="841 1053 1053 1026 834 1047 894"/>
	</vehicle>
	<vehicle depart="0.1" departLane="1" departPos="0" departSpeed="0.4424" id="337" type="passenger">
		<route edges="841 1040 900 979 864 1034"/>
	</vehicle>
	<vehicle depart="0.1" departLane="1" departPos="89.54007273376232" departSpeed="21.4017" id="338" type="passenger">
		<route edges="919 978 949 978 1038 844"/>
	</vehicle>
	<vehicle depart="0.1" departLane="0" departPos="70.97922661569993" departSpeed="0.0003" id="339" type="passenger">
		<route edges="879 929 927 942 899 951 925 976 875"/>
	</vehicle>
	<vehicle depart="0.1" departLane="0" departPos="128.6425291610094" departSpeed="2.2332" id="340" type="passenger">
		<route edges="838 838 1020 857 1062 883"/>
	</vehicle>
	<vehicle depart="0.1" departLane="1" departPos="19.647764157010254" departSpeed="0.0609" id="341" type="passenger">
		<route edges="869 996 889 1012 923 948 840"/>
	</vehicle>
	<vehicle depart="0.1" departLane="0" departPos="58.56895010669531" departSpeed="0.0272" id="342" type="passenger">
		<route edges="911 1003 907 994 897 1007 833"/>
	</vehicle>
	<vehicle depart="0.1" departLane="0" departPos="50.87356642571069" departSpeed="0.1834" id="343" type="passenger">
		<route edges="911 1003 907 994 897 1007 833"/>
	</vehicle>
	<vehicle depart="0.1" departLane="0" departPos="0" departSpeed="8.795" id="344" type="passenger">
		<route edges="893"/>
	</vehicle>
	<vehicle depart="0.1" departLane="0" departPos="155.53493100786528" departSpeed="11.3608" id="346" type="passenger">
		<route edges="877 962 914 1001 853 1037 923"/>
	</vehicle>
	<vehicle depart="0.1" departLane="0" departPos="117.16998318232174" departSpeed="3.3603" id="347" type="passenger">
		<route edges="838 838 1020 857 1062 883"/>
	</vehicle>
	<vehicle depart="0.1" departLane="1" departPos="128.84390925992162" departSpeed="2.4006" id="348" type="passenger">
		<route edges="838 1020 857 1062 883"/>
	</vehicle>
	<vehicle depart="0.1" departLane="1" departPos="48.14835975764832" departSpeed="2.4188" id="349" type="passenger">
		<route edges="911 1003 907 994 897 973 833"/>
	</vehicle>
	<vehicle depart="0.1" departLane="0" departPos="61.50030220461821" departSpeed="23.7893" id="351" type="passenger">
		<route edges="853 1037 923 948 840 1018 880 988 901"/>
	</vehicle>
	<vehicle depart="0.1" departLane="0" departPos="0" departSpeed="0.2177" id="352" type="passenger">
		<route edges="869 997 921 954 876"/>
	</vehicle>
	<vehicle depart="0.1" departLane="0" departPos="0" departSpeed="7.9965" id="354" type="passenger">
		<route edges="1058 1047 894 947 904 946 927"/>
	</vehicle>
	<vehicle depart="0.1" departLane="0" departPos="0" departSpeed="0.5349" id="356" type="passenger">
		<route edges="869 997 921 965 893"/>
	</vehicle>
	<vehicle depart="0.1" departLane="1" departPos="63.512969296248045" departSpeed="0.0312" id="357" type="passenger">
		<route edges="879 929 927 1002 857 1048 919 978 844"/>
	</vehicle>
	<vehicle depart="0.1" departLane="0" departPos="55.9525010480025" departSpeed="0.0297" id="358" type="passenger">
		<route edges="879 929 927 942 899 951 925 976 875"/>
	</vehicle>
	<vehicle depart="0.1" departLane="0" departPos="104.61310423883562" departSpeed="4.3127" id="359" type="passenger">
		<route edges="838 1020 857 1048 919 990 900"/>
	</vehicle>
	<vehicle depart="0.1" departLane="0" departPos="40.115926823591636" departSpeed="2.6688" id="360" type="passenger">
		<route edges="911 1003 907 994 897 1007 833"/>
	</vehicle>
	<vehicle depart="0.1" departLane="1" departPos="0" departSpeed="25.7943" id="362" type="passenger">
		<route edges="853 1037 923 948 840 1033 859 1022 854 1017 899 951 925"/>
	</vehicle>
	<vehicle depart="0.1" departLane="0" departPos="0" departSpeed="11.4765" id="363" type="passenger">
		<route edges="877 962 914 1001 853 1037 923"/>
	</vehicle>
	<vehicle depart="0.1" departLane="0" departPos="48.33448592612092" departSpeed="0.1306" id="364" type="passenger">
		<route edges="879 929 927"/>
	</vehicle>
	<vehicle depart="0.1" departLane="1" departPos="0" departSpeed="0.5294" id="365" type="passenger">
		<route edges="869 996 889 1012 923 948 840"/>
	</vehicle>
	<vehicle depart="0.1" departLane="0" departPos="91.06334772208719" departSpeed="5.184" id="366" type="passenger">
		<route edges="838 1020 857 1048 919 990 900"/>
	</vehicle>
	<vehicle depart="0.1" departLane="1" departPos="55.83707862013843" departSpeed="0.18" id="367" type="passenger">
		<route edges="879 929 927 1002 857 1048 919 978 844"/>
	</vehicle>
	<vehicle depart="0.1" departLane="0" departPos="199.20615892875207" departSpeed="26.4686" id="369" type="passenger">
		<route edges="891 987 853 1037 923 948 840 1018 880 988 901"/>
	</vehicle>
	<vehicle depart="0.1" departLane="0" departPos="0" departSpeed="11.3783" id="370" type="passenger">
		<route edges="877 962 914 1001 853 1037 923"/>
	</vehicle>
	<vehicle depart="0.1" departLane="0" departPos="20.282930949184447" departSpeed="2.2207" id="371" type="passenger">
		<route edges="911 1003 907 994 897 1007 833"/>
	</vehicle>
	<vehicle depart="0.1" departLane="0" departPos="0" departSpeed="0.4051" id="372" type="passenger">
		<route edges="879 929 927"/>
	</vehicle>
	<vehicle depart="0.1" departLane="0" departPos="83.36432881411088" departSpeed="13.9595" id="373" type="passenger">
		<route edges="834 1047 1058 1047 894 947 904 946 927"/>
	</vehicle>
	<vehicle depart="0.1" departLane="1" departPos="10.83875726472134" departSpeed="1.052" id="374" type="passenger">
		<route edges="1063 869 996 889 1012 923 948 840"/>
	</vehicle>
	<vehicle depart="0.1" departLane="0" departPos="10.761203077817648" departSpeed="1.0645" id="375" type="passenger">
		<route edges="1063 869 997 921 954 876"/>
	</vehicle>
	<vehicle depart="0.1" departLane="1" departPos="0" departSpeed="5.8687" id="376" type="passenger">
		<route edges="838 1020 857 1062 883"/>
	</vehicle>
	<vehicle depart="0.1" departLane="1" departPos="47.7001998692965" departSpeed="0.6541" id="377" type="passenger">
		<route edges="879 929 927 1002 857 1048 919 978 844"/>
	</vehicle>
	<vehicle depart="0.1" departLane="1" departPos="136.78536024427845" departSpeed="22.625" id="379" type="passenger">
		<route edges="891 987 853 1037 923 948 840 1033 859 1022 854 1017 899 951 925"/>
	</vehicle>
	<vehicle depart="0.1" departLane="0" departPos="0" departSpeed="11.4206" id="380" type="passenger">
		<route edges="877 962 914 1001 853 1037 923"/>
	</vehicle>
	<vehicle depart="0.1" departLane="1" departPos="29.6653219285593" departSpeed="2.7915" id="381" type="passenger">
		<route edges="911 911 1003 907 994 897 1007 833"/>
	</vehicle>
	<vehicle depart="0.1" departLane="1" departPos="0" departSpeed="1.413" id="382" type="passenger">
		<route edges="879 929 927 1002 857 1048 919 978 844"/>
	</vehicle>
	<vehicle depart="0.1" departLane="0" departPos="0" departSpeed="0.9043" id="383" type="passenger">
		<route edges="879 929 927"/>
	</vehicle>
	<vehicle depart="0.1" departLane="0" departPos="0" departSpeed="1.6863" id="384" type="passenger">
		<route edges="1063 1063 1015 1063 869 996 889 1012 923"/>
	</vehicle>
	<vehicle depart="0.1" departLane="0" departPos="0" departSpeed="6.4017" id="385" type="passenger">
		<route edges="838 1020 857 1048 919 990 900"/>
	</vehicle>
	<vehicle depart="0.1" departLane="0" departPos="103.75193514902877" departSpeed="20.1372" id="387" type="passenger">
		<route edges="891 987 853 1037 923 948 840 1018 880 988 901"/>
	</vehicle>
	<vehicle depart="0.1" departLane="0" departPos="0" departSpeed="0.0" id="388" type="passenger">
		<route edges="911 1003 907 994 897 1007 833"/>
	</vehicle>
	<vehicle depart="0.1" departLane="1" departPos="0" departSpeed="1.5361" id="389" type="passenger">
		<route edges="911 911 1003 907 994 897 1007 833"/>
	</vehicle>
	<vehicle depart="0.1" departLane="1" departPos="23.658028483976203" departSpeed="2.1155" id="390" type="passenger">
		<route edges="863 1063 869 996 889 1012 923"/>
	</vehicle>
	<vehicle depart="0.1" departLane="0" departPos="0" departSpeed="11.4853" id="391" type="passenger">
		<route edges="877 962 914 1001 853 1037 923"/>
	</vehicle>
	<vehicle depart="0.1" departLane="0" departPos="0" departSpeed="12.6855" id="392" type="passenger">
		<route edges="834 1058 1047 894 947 904 946 927"/>
	</vehicle>
	<vehicle depart="0.1" departLane="1" departPos="0" departSpeed="6.7691" id="393" type="passenger">
		<route edges="838 1020 857 1062 883"/>
	</vehicle>
	<vehicle depart="0.1" departLane="1" departPos="0" departSpeed="2.1813" id="394" type="passenger">
		<route edges="879 929 927"/>
	</vehicle>
	<vehicle depart="0.1" departLane="0" departPos="0" departSpeed="1.5067" id="395" type="passenger">
		<route edges="879 929 927"/>
	</vehicle>
	<vehicle depart="0.1" departLane="0" departPos="71.00727232402417" departSpeed="16.6347" id="397" type="passenger">
		<route edges="891 891 987 853 1037 923 948 840 1033 859 1022 854 1017 899 951"/>
	</vehicle>
	<vehicle depart="0.1" departLane="0" departPos="23.600219683373407" departSpeed="2.1819" id="398" type="passenger">
		<route edges="863 1063 869 997 921 954 876"/>
	</vehicle>
	<vehicle depart="0.1" departLane="0" departPos="0" departSpeed="13.1503" id="399" type="passenger">
		<route edges="877 962 914 1001 853 1037 923"/>
	</vehicle>
	<vehicle depart="0.1" departLane="1" departPos="0" departSpeed="6.7571" id="3100" type="passenger">
		<route edges="838 838 1020 857 1048 919 990 900"/>
	</vehicle>
	<vehicle depart="0.1" departLane="0" departPos="0" departSpeed="13.3654" id="3101" type="passenger">
		<route edges="891 987 853 1037 923 923 948 840 1033 859 1022 854 1017 899"/>
	</vehicle>
	<vehicle depart="0.1" departLane="1" departPos="0" departSpeed="2.6509" id="3102" type="passenger">
		<route edges="879 961 907 994 897 973 833"/>
	</vehicle>
	<vehicle depart="0.1" departLane="0" departPos="0" departSpeed="9.1653" id="3103" type="passenger">
		<route edges="834 1058 1047 894 947 904 946 927"/>
	</vehicle>
	<vehicle depart="0.1" departLane="0" departPos="0" departSpeed="1.9177" id="3104" type="passenger">
		<route edges="879 929 927"/>
	</vehicle>
	<vehicle depart="0.1" departLane="0" departPos="0" departSpeed="10.5506" id="3105" type="passenger">
		<route edges="927 942 1002 1042 854 1010 854 1042 835"/>
	</vehicle>
	<vehicle depart="0.1" departLane="0" departPos="0" departSpeed="11.0474" id="3106" type="passenger">
		<route edges="877 962 914 1001 853 1037 923"/>
	</vehicle>
	<vehicle depart="0.1" departLane="0" departPos="0" departSpeed="2.4557" id="3107" type="passenger">
		<route edges="863 1063 869 996 889 1012 923 948 840"/>
	</vehicle>
	<vehicle depart="0.1" departLane="1" departPos="0" departSpeed="2.4487" id="3108" type="passenger">
		<route edges="863 1063 869 996 889 1012 923"/>
	</vehicle>
	<vehicle depart="0.1" departLane="1" departPos="0" departSpeed="6.2714" id="3109" type="passenger">
		<route edges="838 838 1020 857 1048 919 990 900"/>
	</vehicle>
	<vehicle depart="0.1" departLane="0" departPos="0" departSpeed="3.4644" id="3110" type="passenger">
		<route edges="838 1020 857 1048 919 990 900"/>
	</vehicle>
	<vehicle depart="0.1" departLane="0" departPos="0" departSpeed="10.054" id="3111" type="passenger">
		<route edges="891 987 853 1037 923 948 840 1018 880 988"/>
	</vehicle>
	<vehicle depart="0.1" departLane="0" departPos="0" departSpeed="7.4683" id="3112" type="passenger">
		<route edges="927 942 899 951 925 976 875"/>
	</vehicle>
	<vehicle depart="0.1" departLane="0" departPos="0" departSpeed="7.7761" id="3113" type="passenger">
		<route edges="877 962 914 1001 853 1037 923"/>
	</vehicle>
	<vehicle depart="0.1" departLane="1" departPos="0" departSpeed="2.4678" id="3114" type="passenger">
		<route edges="879 961 907 994 897 973 833"/>
	</vehicle>
	<vehicle depart="0.1" departLane="1" departPos="0" departSpeed="3.1804" id="3115" type="passenger">
		<route edges="838 838 1020 857 1048 919 990 900"/>
	</vehicle>
	<vehicle depart="0.1" departLane="0" departPos="14.497205214415683" departSpeed="0.0" id="3116" type="passenger">
		<route edges="928 834 1047 894 947 904 946"/>
	</vehicle>
	<vehicle depart="0.1" departLane="0" departPos="0" departSpeed="6.7551" id="3117" type="passenger">
		<route edges="891 891 987 853 1037 923 948 840 1033 859 1022 854 1017 899"/>
	</vehicle>
	<vehicle depart="0.1" departLane="1" departPos="0" departSpeed="0.1137" id="3118" type="passenger">
		<route edges="911 911 1003 907 994 897 1007 833"/>
	</vehicle>
	<vehicle depart="0.1" departLane="0" departPos="0" departSpeed="0.0" id="3119" type="passenger">
		<route edges="863 863 1063 869 996 889 1012 923"/>
	</vehicle>
	<vehicle depart="0.1" departLane="1" departPos="0" departSpeed="1.7862" id="3120" type="passenger">
		<route edges="863 863 1063 869 996 889 1012 923"/>
	</vehicle>
	<vehicle depart="0.1" departLane="0" departPos="6.3035237591997575" departSpeed="4.0903" id="3121" type="passenger">
		<route edges="992 929 929 1003 994 936 940 975 851"/>
	</vehicle>
	<vehicle depart="0.1" departLane="0" departPos="0" departSpeed="3.6611" id="3122" type="passenger">
		<route edges="877 962 914 1001 853 1037 923"/>
	</vehicle>
	<vehicle depart="0.1" departLane="0" departPos="8.393820105371663" departSpeed="1.378" id="3123" type="passenger">
		<route edges="969 838 1020 857 1062 883"/>
	</vehicle>
	<vehicle depart="0.1" departLane="0" departPos="0" departSpeed="3.434" id="3124" type="passenger">
		<route edges="891 987 853 1037 923 948 840 1018"/>
	</vehicle>
</routes>
