<routes>
	<vehicle depart="0.1" departLane="0" departPos="67.93857445448589" departSpeed="0.18355946" id="39" type="bicycle">
		<route edges="21574 21625"/>
	</vehicle>
	<vehicle depart="0.1" departLane="0" departPos="9.825677022329513" departSpeed="0.015240216" id="34" type="passenger">
		<route edges=":35_5 21625"/>
	</vehicle>
	<vehicle depart="0.1" departLane="0" departPos="6.699703830304842" departSpeed="10.593367" id="333" type="passenger">
		<route edges="21621 21618"/>
	</vehicle>
	<vehicle depart="0.1" departLane="0" departPos="15.981486683523476" departSpeed="11.964136" id="339" type="passenger">
		<route edges=":35_1 21621 21618"/>
	</vehicle>
	<vehicle depart="0.1" departLane="0" departPos="6.955237108072486" departSpeed="13.784513" id="350" type="passenger">
		<route edges=":34_4 21624 21621"/>
	</vehicle>
	<vehicle depart="0.1" departLane="0" departPos="53.9076368817324" departSpeed="11.676059" id="358" type="passenger">
		<route edges="21627 21690"/>
	</vehicle>
	<vehicle depart="0.1" departLane="0" departPos="13.868639380241193" departSpeed="10.286952" id="345" type="motorcycle">
		<route edges="21624 21621 21618"/>
	</vehicle>
	<vehicle depart="0.1" departLane="0" departPos="66.95115492888743" departSpeed="0.72283187" id="30" type="truck">
		<route edges="21689 21628"/>
	</vehicle>
</routes>
