<routes>
	<vehicle depart="0.1" departLane="0" departPos="70.64563802317203" departSpeed="0.0" id="38" type="passenger">
		<route edges="38558 37869"/>
	</vehicle>
	<vehicle depart="0.1" departLane="0" departPos="2.5" departSpeed="7.7129329" id="311" type="passenger">
		<route edges=":33_1 37826"/>
	</vehicle>
	<vehicle depart="0.1" departLane="0" departPos="11.745308028696591" departSpeed="1.1572386" id="315" type="passenger">
		<route edges=":31_10 38559"/>
	</vehicle>
	<vehicle depart="0.1" departLane="0" departPos="7.668407242611314" departSpeed="7.3686524" id="316" type="passenger">
		<route edges=":31_1 37873 38461"/>
	</vehicle>
	<vehicle depart="0.1" departLane="0" departPos="9.956959746369435" departSpeed="1.8388523" id="338" type="passenger">
		<route edges=":31_6 38559"/>
	</vehicle>
	<vehicle depart="0.1" departLane="0" departPos="21.071873894192876" departSpeed="0.023146811" id="342" type="passenger">
		<route edges=":33_10 38461"/>
	</vehicle>
	<vehicle depart="0.1" departLane="0" departPos="70.22256852410054" departSpeed="2.6090037" id="346" type="passenger">
		<route edges="38460 39142"/>
	</vehicle>
	<vehicle depart="0.1" departLane="0" departPos="32.77385120484827" departSpeed="4.5886448" id="348" type="passenger">
		<route edges="38460 37872"/>
	</vehicle>
	<vehicle depart="0.1" departLane="0" departPos="41.05529410138863" departSpeed="0.0" id="30" type="truck">
		<route edges="37827 38461"/>
	</vehicle>
	<vehicle depart="0.1" departLane="0" departPos="51.915321699643535" departSpeed="5.5131783" id="347" type="truck">
		<route edges="38460 37872"/>
	</vehicle>
</routes>
