<!-- generated on Tue Feb  9 22:06:44 2021 by Eclipse SUMO netconvert Version 1.8.0
<configuration xmlns:xsi="http://www.w3.org/2001/XMLSchema-instance" xsi:noNamespaceSchemaLocation="http://sumo.dlr.de/xsd/netconvertConfiguration.xsd">

    <input>
        <node-files value="./converted_scenarios/scenario-factory/DEU_Guetersloh-26_5_I-1-1/DEU_Guetersloh-26_5_I-1-1.nod.xml"/>
        <edge-files value="./converted_scenarios/scenario-factory/DEU_Guetersloh-26_5_I-1-1/DEU_Guetersloh-26_5_I-1-1.edg.xml"/>
        <connection-files value="./converted_scenarios/scenario-factory/DEU_Guetersloh-26_5_I-1-1/DEU_Guetersloh-26_5_I-1-1.con.xml"/>
        <tllogic-files value="./converted_scenarios/scenario-factory/DEU_Guetersloh-26_5_I-1-1/DEU_Guetersloh-26_5_I-1-1.tll.xml"/>
        <type-files value="/home/zen/commonroad-interactive-benchmarks/install/commonroad-map-tool/crmapconverter/sumo_map/templates/DEU.typ.xml"/>
    </input>

    <output>
        <output-file value="./converted_scenarios/scenario-factory/DEU_Guetersloh-26_5_I-1-1/DEU_Guetersloh-26_5_I-1-1.net.xml"/>
    </output>

    <processing>
        <geometry.remove.keep-edges.explicit value="true"/>
        <geometry.avoid-overlap value="true"/>
        <offset.disable-normalization value="true"/>
    </processing>

    <junctions>
        <no-turnarounds value="true"/>
        <junctions.internal-link-detail value="20"/>
    </junctions>

    <report>
        <aggregate-warnings value="5"/>
    </report>

    <random_number>
        <seed value="1234"/>
    </random_number>

</configuration>
--><net xmlns:xsi="http://www.w3.org/2001/XMLSchema-instance" version="1.6" junctionCornerDetail="5" junctionLinkDetail="20" limitTurnSpeed="5.50" xsi:noNamespaceSchemaLocation="http://sumo.dlr.de/xsd/net_file.xsd">

    <location netOffset="0.00,0.00" convBoundary="-366.57,-625.97,-80.88,-337.89" origBoundary="-366.57,-625.97,-80.88,-337.89" projParameter="!"/>

    <type id="highway.bridleway" priority="1" speed="2.78" allow="pedestrian" oneway="1" width="2.00"/>
    <type id="highway.bus_guideway" priority="1" speed="27.78" allow="bus" oneway="1"/>
    <type id="highway.cycleway" priority="1" speed="8.33" allow="bicycle" oneway="0" width="1.00"/>
    <type id="highway.footway" priority="1" speed="2.78" allow="pedestrian" oneway="1" width="2.00"/>
    <type id="highway.ford" priority="1" speed="2.78" allow="army" oneway="0"/>
    <type id="highway.living_street" priority="2" speed="2.78" disallow="tram rail_urban rail rail_electric rail_fast ship" oneway="0"/>
    <type id="highway.motorway" priority="14" speed="39.44" allow="private emergency authority army vip passenger hov taxi bus coach delivery truck trailer motorcycle evehicle custom1 custom2" oneway="1"/>
    <type id="highway.motorway_link" priority="9" speed="22.22" allow="private emergency authority army vip passenger hov taxi bus coach delivery truck trailer motorcycle evehicle custom1 custom2" oneway="1"/>
    <type id="highway.path" priority="1" speed="2.78" allow="pedestrian bicycle" oneway="0" width="2.00"/>
    <type id="highway.pedestrian" priority="1" speed="2.78" allow="pedestrian" oneway="1" width="2.00"/>
    <type id="highway.primary" priority="12" speed="27.78" disallow="pedestrian tram rail_urban rail rail_electric rail_fast ship" oneway="0"/>
    <type id="highway.primary_link" priority="7" speed="22.22" disallow="pedestrian tram rail_urban rail rail_electric rail_fast ship" oneway="0"/>
    <type id="highway.raceway" priority="15" speed="83.33" allow="vip" oneway="0"/>
    <type id="highway.residential" priority="3" speed="13.89" disallow="pedestrian tram rail_urban rail rail_electric rail_fast ship" oneway="0"/>
    <type id="highway.secondary" priority="11" speed="27.78" disallow="pedestrian tram rail_urban rail rail_electric rail_fast ship" oneway="0"/>
    <type id="highway.secondary_link" priority="6" speed="22.22" disallow="pedestrian tram rail_urban rail rail_electric rail_fast ship" oneway="0"/>
    <type id="highway.service" priority="1" speed="5.56" allow="pedestrian delivery bicycle" oneway="0"/>
    <type id="highway.stairs" priority="1" speed="1.39" allow="pedestrian" oneway="1" width="2.00"/>
    <type id="highway.step" priority="1" speed="1.39" allow="pedestrian" oneway="1" width="2.00"/>
    <type id="highway.steps" priority="1" speed="1.39" allow="pedestrian" oneway="1" width="2.00"/>
    <type id="highway.tertiary" priority="10" speed="22.22" disallow="pedestrian tram rail_urban rail rail_electric rail_fast ship" oneway="0"/>
    <type id="highway.tertiary_link" priority="5" speed="22.22" disallow="pedestrian tram rail_urban rail rail_electric rail_fast ship" oneway="0"/>
    <type id="highway.track" priority="1" speed="5.56" allow="pedestrian motorcycle moped bicycle" oneway="0"/>
    <type id="highway.trunk" priority="13" speed="27.78" disallow="pedestrian bicycle tram rail_urban rail rail_electric rail_fast ship" oneway="0"/>
    <type id="highway.trunk_link" priority="8" speed="22.22" disallow="pedestrian bicycle tram rail_urban rail rail_electric rail_fast ship" oneway="0"/>
    <type id="highway.unclassified" priority="4" speed="13.89" disallow="pedestrian tram rail_urban rail rail_electric rail_fast ship" oneway="0"/>
    <type id="highway.unsurfaced" priority="1" speed="8.33" disallow="tram rail_urban rail rail_electric rail_fast ship" oneway="0"/>
    <type id="railway.highspeed" priority="21" speed="69.44" allow="rail_fast" oneway="1"/>
    <type id="railway.light_rail" priority="19" speed="27.78" allow="rail_urban" oneway="1"/>
    <type id="railway.preserved" priority="16" speed="27.78" allow="rail" oneway="1"/>
    <type id="railway.rail" priority="20" speed="44.44" allow="rail" oneway="1"/>
    <type id="railway.subway" priority="18" speed="27.78" allow="rail_urban" oneway="1"/>
    <type id="railway.tram" priority="17" speed="13.89" allow="tram" oneway="1"/>

    <edge id=":45_0" function="internal">
        <lane id=":45_0_0" index="0" disallow="pedestrian tram rail_urban rail rail_electric rail_fast ship" speed="12.05" length="29.21" width="3.50" shape="-252.71,-464.30 -254.86,-464.07 -256.99,-463.65 -259.06,-463.02 -261.05,-462.15 -262.90,-461.03 -264.59,-459.67 -266.06,-458.08 -267.31,-456.30 -268.33,-454.39 -269.14,-452.38 -269.77,-450.31 -270.41,-447.12 -270.66,-445.02"/>
    </edge>
    <edge id=":45_1" function="internal">
        <lane id=":45_1_0" index="0" disallow="pedestrian tram rail_urban rail rail_electric rail_fast ship" speed="26.69" length="38.70" width="3.50" shape="-252.71,-464.30 -264.30,-463.60 -275.93,-463.14 -283.38,-463.11 -287.72,-463.34 -290.01,-463.69 -291.29,-464.08"/>
    </edge>
    <edge id=":45_2" function="internal">
        <lane id=":45_2_0" index="0" disallow="pedestrian tram rail_urban rail rail_electric rail_fast ship" speed="25.80" length="36.73" width="3.50" shape="-289.62,-467.20 -288.91,-467.00 -286.87,-466.73 -282.76,-466.55 -275.55,-466.62 -264.24,-467.10 -252.97,-467.79"/>
    </edge>
    <edge id=":45_3" function="internal">
        <lane id=":45_3_0" index="0" disallow="pedestrian tram rail_urban rail rail_electric rail_fast ship" speed="13.91" length="31.10" width="3.50" shape="-289.64,-467.16 -285.76,-465.23 -282.73,-463.48 -279.82,-461.51 -277.07,-459.26 -275.36,-457.55 -273.81,-455.65 -272.49,-453.56 -271.46,-451.26 -270.82,-448.83 -270.65,-447.49 -270.66,-445.02"/>
    </edge>
    <edge id=":45_4" function="internal">
        <lane id=":45_4_0" index="0" disallow="pedestrian tram rail_urban rail rail_electric rail_fast ship" speed="12.96" length="27.04" width="3.50" shape="-274.15,-445.31 -274.15,-447.37 -274.30,-448.41 -274.87,-450.41 -275.78,-452.29 -276.95,-454.02 -278.31,-455.60 -279.82,-457.04 -282.28,-458.98 -284.89,-460.71 -287.61,-462.26 -291.29,-464.08"/>
    </edge>
    <edge id=":45_5" function="internal">
        <lane id=":45_5_0" index="0" disallow="pedestrian tram rail_urban rail rail_electric rail_fast ship" speed="13.01" length="34.20" width="3.50" shape="-274.15,-445.31 -273.85,-447.74 -273.12,-451.36 -272.39,-453.77 -271.43,-456.11 -270.21,-458.35 -268.71,-460.45 -266.94,-462.34 -264.91,-463.97 -262.69,-465.29 -260.33,-466.31 -257.90,-467.05 -255.42,-467.53 -252.97,-467.79"/>
    </edge>
    <edge id=":46_0" function="internal">
        <lane id=":46_0_0" index="0" disallow="pedestrian tram rail_urban rail rail_electric rail_fast ship" speed="36.11" length="38.34" width="3.50" shape="-203.28,-523.19 -203.64,-524.12 -206.39,-530.78 -215.48,-550.57 -218.70,-558.28"/>
    </edge>
    <edge id=":46_1" function="internal">
        <lane id=":46_1_0" index="0" disallow="pedestrian tram rail_urban rail rail_electric rail_fast ship" speed="11.69" length="35.98" width="3.50" shape="-203.28,-523.19 -204.13,-525.69 -204.81,-528.29 -205.23,-530.98 -205.31,-533.72 -205.19,-535.17 -204.94,-536.58 -204.54,-537.97 -203.99,-539.32 -203.29,-540.60 -202.46,-541.80 -201.50,-542.89 -200.45,-543.87 -199.32,-544.73 -198.14,-545.49 -196.90,-546.17 -194.42,-547.23 -191.85,-548.04 -187.98,-548.87"/>
    </edge>
    <edge id=":46_2" function="internal">
        <lane id=":46_2_0" index="0" disallow="pedestrian tram rail_urban rail rail_electric rail_fast ship" speed="10.65" length="29.63" width="3.50" shape="-187.40,-545.42 -190.74,-544.71 -192.92,-544.02 -195.01,-543.13 -196.02,-542.58 -196.98,-541.97 -197.88,-541.28 -198.72,-540.50 -199.47,-539.65 -200.13,-538.72 -200.68,-537.72 -201.11,-536.67 -201.42,-535.57 -201.63,-534.45 -201.73,-533.31 -201.67,-531.04 -201.31,-528.79 -200.74,-526.58 -200.00,-524.42"/>
    </edge>
    <edge id=":46_3" function="internal">
        <lane id=":46_3_0" index="0" disallow="pedestrian tram rail_urban rail rail_electric rail_fast ship" speed="13.66" length="37.07" width="3.50" shape="-187.40,-545.42 -192.31,-544.80 -196.01,-544.63 -199.72,-544.77 -202.17,-545.08 -204.59,-545.60 -206.95,-546.34 -209.21,-547.34 -211.33,-548.61 -213.27,-550.14 -214.99,-551.92 -216.47,-553.90 -217.70,-556.04 -218.70,-558.28"/>
    </edge>
    <edge id=":46_4" function="internal">
        <lane id=":46_4_0" index="0" disallow="pedestrian tram rail_urban rail rail_electric rail_fast ship" speed="12.77" length="32.29" width="3.50" shape="-215.46,-559.58 -214.58,-557.62 -213.52,-555.80 -212.25,-554.14 -210.79,-552.67 -209.14,-551.40 -207.32,-550.36 -205.38,-549.53 -203.34,-548.92 -201.22,-548.50 -199.07,-548.24 -195.75,-548.14 -192.43,-548.31 -187.98,-548.87"/>
    </edge>
    <edge id=":46_5" function="internal">
        <lane id=":46_5_0" index="0" disallow="pedestrian tram rail_urban rail rail_electric rail_fast ship" speed="36.11" length="38.42" width="3.50" shape="-215.46,-559.58 -212.25,-551.90 -203.15,-532.10 -200.38,-525.39 -200.00,-524.42"/>
    </edge>
    <edge id=":47_0" function="internal">
        <lane id=":47_0_0" index="0" disallow="pedestrian tram rail_urban rail rail_electric rail_fast ship" speed="12.91" length="32.01" width="3.50" shape="-178.62,-454.68 -179.35,-456.70 -180.27,-458.59 -181.38,-460.35 -182.70,-461.96 -184.20,-463.37 -185.88,-464.60 -187.70,-465.62 -189.64,-466.44 -191.66,-467.07 -194.85,-467.72 -198.11,-468.04 -201.41,-468.10 -204.72,-467.94"/>
    </edge>
    <edge id=":47_1" function="internal">
        <lane id=":47_1_0" index="0" disallow="pedestrian tram rail_urban rail rail_electric rail_fast ship" speed="36.11" length="39.74" width="3.50" shape="-178.62,-454.68 -180.22,-459.68 -185.23,-474.53 -191.63,-492.23"/>
    </edge>
    <edge id=":47_2" function="internal">
        <lane id=":47_2_0" index="0" disallow="pedestrian tram rail_urban rail rail_electric rail_fast ship" speed="36.11" length="39.90" width="3.50" shape="-188.36,-493.46 -181.93,-475.68 -176.89,-460.76 -175.29,-455.76"/>
    </edge>
    <edge id=":47_3" function="internal">
        <lane id=":47_3_0" index="0" disallow="pedestrian tram rail_urban rail rail_electric rail_fast ship" speed="11.59" length="37.42" width="3.50" shape="-188.36,-493.46 -187.11,-489.53 -186.51,-486.78 -186.21,-483.99 -186.20,-482.52 -186.31,-481.06 -186.56,-479.59 -186.96,-478.14 -187.54,-476.73 -188.28,-475.39 -189.20,-474.16 -190.24,-473.05 -191.40,-472.09 -192.63,-471.26 -193.91,-470.55 -195.26,-469.95 -197.92,-469.06 -200.65,-468.45 -204.72,-467.94"/>
    </edge>
    <edge id=":47_4" function="internal">
        <lane id=":47_4_0" index="0" disallow="pedestrian tram rail_urban rail rail_electric rail_fast ship" speed="10.54" length="30.71" width="3.50" shape="-205.00,-471.43 -201.49,-471.87 -199.18,-472.38 -196.94,-473.13 -195.86,-473.62 -194.83,-474.18 -193.85,-474.84 -192.94,-475.60 -192.12,-476.45 -191.42,-477.40 -190.84,-478.43 -190.40,-479.53 -190.08,-480.67 -189.89,-481.83 -189.80,-483.01 -189.81,-484.19 -190.06,-486.54 -190.56,-488.85 -191.63,-492.23"/>
    </edge>
    <edge id=":47_5" function="internal">
        <lane id=":47_5_0" index="0" disallow="pedestrian tram rail_urban rail rail_electric rail_fast ship" speed="13.83" length="36.71" width="3.50" shape="-205.00,-471.43 -201.33,-471.60 -197.66,-471.53 -194.01,-471.14 -190.42,-470.38 -188.09,-469.63 -185.85,-468.65 -183.73,-467.42 -181.77,-465.96 -180.01,-464.25 -178.48,-462.35 -177.19,-460.27 -176.13,-458.06 -175.29,-455.76"/>
    </edge>
    <edge id=":48_0" function="internal">
        <lane id=":48_0_0" index="0" disallow="pedestrian tram rail_urban rail rail_electric rail_fast ship" speed="36.11" length="37.73" width="3.50" shape="-170.05,-417.75 -172.07,-428.80 -174.25,-438.75 -176.53,-447.64 -178.55,-454.48"/>
    </edge>
    <edge id=":48_1" function="internal">
        <lane id=":48_1_0" index="0" disallow="pedestrian tram rail_urban rail rail_electric rail_fast ship" speed="11.76" length="35.50" width="3.50" shape="-170.05,-417.75 -170.52,-421.84 -170.56,-424.56 -170.31,-427.28 -170.05,-428.62 -169.70,-429.94 -169.23,-431.22 -168.65,-432.45 -167.94,-433.62 -167.12,-434.71 -166.19,-435.70 -165.16,-436.59 -164.04,-437.37 -162.86,-438.05 -161.62,-438.62 -159.04,-439.50 -156.37,-440.06 -153.66,-440.37 -150.91,-440.49"/>
    </edge>
    <edge id=":48_2" function="internal">
        <lane id=":48_2_0" index="0" disallow="pedestrian tram rail_urban rail rail_electric rail_fast ship" speed="10.72" length="29.31" width="3.50" shape="-150.88,-436.99 -153.26,-436.89 -155.58,-436.62 -157.83,-436.15 -160.00,-435.42 -160.97,-434.96 -161.91,-434.43 -162.79,-433.81 -163.60,-433.12 -164.32,-432.35 -164.96,-431.50 -165.51,-430.59 -165.96,-429.62 -166.34,-428.60 -166.62,-427.54 -166.83,-426.47 -167.04,-424.17 -167.01,-421.87 -166.60,-418.32"/>
    </edge>
    <edge id=":48_3" function="internal">
        <lane id=":48_3_0" index="0" disallow="pedestrian tram rail_urban rail rail_electric rail_fast ship" speed="14.02" length="35.47" width="3.50" shape="-150.88,-436.99 -154.57,-437.08 -158.21,-437.48 -161.80,-438.23 -164.14,-438.96 -166.39,-439.90 -168.55,-441.06 -170.56,-442.44 -172.40,-444.05 -174.05,-445.86 -175.49,-447.83 -176.71,-449.95 -177.73,-452.17 -178.55,-454.48"/>
    </edge>
    <edge id=":48_4" function="internal">
        <lane id=":48_4_0" index="0" disallow="pedestrian tram rail_urban rail rail_electric rail_fast ship" speed="13.12" length="31.00" width="3.50" shape="-175.22,-455.54 -174.49,-453.51 -173.60,-451.57 -172.54,-449.75 -171.30,-448.06 -169.88,-446.52 -168.29,-445.16 -166.56,-443.99 -164.69,-443.00 -162.73,-442.20 -160.69,-441.57 -157.49,-440.91 -154.23,-440.57 -150.91,-440.49"/>
    </edge>
    <edge id=":48_5" function="internal">
        <lane id=":48_5_0" index="0" disallow="pedestrian tram rail_urban rail rail_electric rail_fast ship" speed="36.11" length="38.23" width="3.50" shape="-175.22,-455.54 -173.16,-448.58 -170.85,-439.58 -168.64,-429.50 -166.60,-418.32"/>
    </edge>
    <edge id=":49_0" function="internal">
        <lane id=":49_0_0" index="0" disallow="pedestrian tram rail_urban rail rail_electric rail_fast ship" speed="36.11" length="38.64" width="3.50" shape="-280.05,-383.34 -278.19,-402.58 -276.33,-421.80"/>
    </edge>
    <edge id=":49_1" function="internal">
        <lane id=":49_1_0" index="0" disallow="pedestrian tram rail_urban rail rail_electric rail_fast ship" speed="36.11" length="38.63" width="3.50" shape="-272.84,-421.47 -274.70,-402.25 -276.56,-383.02"/>
    </edge>
    <edge id=":49_2" function="internal">
        <lane id=":49_2_0" index="0" disallow="pedestrian tram rail_urban rail rail_electric rail_fast ship" speed="12.51" length="34.63" width="3.50" shape="-272.84,-421.47 -272.98,-420.21 -273.41,-417.75 -274.07,-415.29 -275.01,-412.89 -276.26,-410.60 -277.83,-408.52 -278.76,-407.54 -279.75,-406.66 -280.84,-405.85 -283.06,-404.53 -285.46,-403.53 -287.92,-402.82 -290.41,-402.37 -292.91,-402.14 -296.62,-402.10"/>
    </edge>
    <edge id=":49_3" function="internal">
        <lane id=":49_3_0" index="0" disallow="pedestrian tram rail_urban rail rail_electric rail_fast ship" speed="11.53" length="29.28" width="3.50" shape="-296.50,-405.60 -293.25,-405.63 -291.09,-405.83 -288.95,-406.21 -286.86,-406.79 -284.86,-407.62 -282.99,-408.71 -282.12,-409.36 -281.30,-410.08 -280.55,-410.85 -279.23,-412.57 -278.18,-414.47 -277.38,-416.49 -276.82,-418.58 -276.45,-420.72 -276.33,-421.80"/>
    </edge>

    <edge id="76932" from="49" to="39" priority="3" type="highway.residential" spreadType="center" length="70.00" shape="-283.19,-401.14 -366.57,-404.87">
        <lane id="76932_0" index="0" disallow="pedestrian tram rail_urban rail rail_electric rail_fast ship" speed="36.11" length="70.00" width="3.50" customShape="1" shape="-296.62,-402.10 -366.57,-404.87"/>
    </edge>
    <edge id="76933" from="44" to="49" priority="3" type="highway.residential" spreadType="center" length="70.00" shape="-366.44,-408.37 -283.04,-404.63">
        <lane id="76933_0" index="0" disallow="pedestrian tram rail_urban rail rail_electric rail_fast ship" speed="36.11" length="70.00" width="3.50" customShape="1" shape="-366.44,-408.37 -296.49,-405.60"/>
    </edge>
    <edge id="76958" from="46" to="26" priority="3" type="highway.residential" spreadType="center" length="70.00" shape="-202.48,-545.01 -118.88,-560.04">
        <lane id="76958_0" index="0" disallow="pedestrian tram rail_urban rail rail_electric rail_fast ship" speed="36.11" length="70.00" width="3.50" customShape="1" shape="-187.98,-548.87 -150.53,-555.20 -127.53,-558.85 -118.88,-560.04"/>
    </edge>
    <edge id="76959" from="28" to="46" priority="3" type="highway.residential" spreadType="center" length="70.00" shape="-118.30,-556.59 -201.86,-541.57">
        <lane id="76959_0" index="0" disallow="pedestrian tram rail_urban rail rail_electric rail_fast ship" speed="36.11" length="70.00" width="3.50" customShape="1" shape="-118.30,-556.59 -127.23,-555.35 -150.11,-551.72 -187.40,-545.42"/>
    </edge>
    <edge id="76992" from="47" to="45" priority="3" type="highway.residential" spreadType="center" length="48.13" shape="-190.28,-470.86 -271.65,-457.23">
        <lane id="76992_0" index="0" disallow="pedestrian tram rail_urban rail rail_electric rail_fast ship" speed="36.11" length="48.13" width="3.50" customShape="1" shape="-204.72,-467.94 -230.48,-465.91 -252.71,-464.30"/>
    </edge>
    <edge id="76993" from="45" to="47" priority="3" type="highway.residential" spreadType="center" length="48.12" shape="-272.23,-460.69 -190.85,-474.31">
        <lane id="76993_0" index="0" disallow="pedestrian tram rail_urban rail rail_electric rail_fast ship" speed="36.11" length="48.12" width="3.50" customShape="1" shape="-252.97,-467.79 -230.74,-469.40 -204.99,-471.43"/>
    </edge>
    <edge id="77026" from="27" to="48" priority="3" type="highway.residential" spreadType="center" length="70.00" shape="-80.88,-437.65 -165.36,-435.51">
        <lane id="77026_0" index="0" disallow="pedestrian tram rail_urban rail rail_electric rail_fast ship" speed="36.11" length="70.00" width="3.50" customShape="1" shape="-80.88,-437.65 -113.46,-437.34 -150.88,-436.99"/>
    </edge>
    <edge id="77027" from="48" to="19" priority="3" type="highway.residential" spreadType="center" length="70.00" shape="-165.45,-439.01 -80.91,-441.15">
        <lane id="77027_0" index="0" disallow="pedestrian tram rail_urban rail rail_electric rail_fast ship" speed="36.11" length="70.00" width="3.50" customShape="1" shape="-150.91,-440.49 -113.49,-440.84 -80.91,-441.15"/>
    </edge>
    <edge id="77238" from="49" to="40" priority="3" type="highway.residential" spreadType="center" length="45.36" shape="-281.40,-402.94 -281.11,-337.89">
        <lane id="77238_0" index="0" disallow="pedestrian tram rail_urban rail rail_electric rail_fast ship" speed="36.11" length="45.36" width="3.50" customShape="1" shape="-276.56,-383.02 -278.84,-360.45 -281.11,-337.89"/>
    </edge>
    <edge id="77239" from="43" to="49" priority="3" type="highway.residential" spreadType="center" length="45.37" shape="-284.59,-338.23 -284.90,-402.92">
        <lane id="77239_0" index="0" disallow="pedestrian tram rail_urban rail rail_electric rail_fast ship" speed="36.11" length="45.37" width="3.50" customShape="1" shape="-284.59,-338.23 -282.32,-360.80 -280.05,-383.37"/>
    </edge>
    <edge id="77241" from="45" to="49" priority="3" type="highway.residential" spreadType="center" length="23.66" shape="-270.22,-458.62 -281.45,-402.49">
        <lane id="77241_0" index="0" disallow="pedestrian tram rail_urban rail rail_electric rail_fast ship" speed="36.11" length="23.66" width="3.50" customShape="1" shape="-270.66,-445.02 -271.75,-433.22 -272.84,-421.46"/>
    </edge>
    <edge id="77242" from="49" to="45" priority="3" type="highway.residential" spreadType="center" length="23.64" shape="-284.88,-403.18 -273.65,-459.30">
        <lane id="77242_0" index="0" disallow="pedestrian tram rail_urban rail rail_electric rail_fast ship" speed="36.11" length="23.64" width="3.50" customShape="1" shape="-276.33,-421.80 -275.24,-433.54 -274.15,-445.34"/>
    </edge>
    <edge id="77459" from="45" to="31" priority="3" type="highway.residential" spreadType="center" length="18.82" shape="-272.93,-457.52 -301.35,-479.39">
        <lane id="77459_0" index="0" disallow="pedestrian tram rail_urban rail rail_electric rail_fast ship" speed="36.11" length="18.82" width="3.50" customShape="1" shape="-291.29,-464.08 -292.86,-464.92 -294.20,-465.97 -295.35,-467.22 -296.99,-469.54 -298.67,-472.51 -300.05,-475.63 -301.35,-479.39"/>
    </edge>
    <edge id="77460" from="38" to="45" priority="3" type="highway.residential" spreadType="center" length="16.15" shape="-298.03,-480.47 -270.83,-460.31">
        <lane id="77460_0" index="0" disallow="pedestrian tram rail_urban rail rail_electric rail_fast ship" speed="36.11" length="16.15" width="3.49" customShape="1" shape="-298.03,-480.47 -296.86,-477.07 -295.66,-474.32 -294.22,-471.72 -292.83,-469.69 -291.99,-468.70 -291.04,-467.91 -289.64,-467.16"/>
    </edge>
    <edge id="77545" from="46" to="25" priority="3" type="highway.residential" spreadType="center" length="70.01" shape="-203.72,-542.55 -240.60,-624.67">
        <lane id="77545_0" index="0" disallow="pedestrian tram rail_urban rail rail_electric rail_fast ship" speed="36.11" length="70.01" width="3.50" customShape="1" shape="-218.70,-558.28 -220.29,-562.57 -222.78,-570.27 -225.61,-580.51 -229.66,-595.66 -232.19,-603.88 -234.65,-610.53 -240.54,-624.51 -240.60,-624.67"/>
    </edge>
    <edge id="77546" from="34" to="46" priority="3" type="highway.residential" spreadType="center" length="70.09" shape="-237.35,-625.97 -200.53,-543.98">
        <lane id="77546_0" index="0" disallow="pedestrian tram rail_urban rail rail_electric rail_fast ship" speed="36.11" length="70.09" width="3.50" customShape="1" shape="-237.35,-625.97 -237.21,-625.60 -231.33,-611.64 -228.86,-604.94 -226.31,-596.67 -222.27,-581.53 -219.46,-571.37 -217.00,-563.76 -215.43,-559.50"/>
    </edge>
    <edge id="77548" from="47" to="46" priority="3" type="highway.residential" spreadType="center" length="33.09" shape="-192.32,-472.25 -203.86,-543.02">
        <lane id="77548_0" index="0" disallow="pedestrian tram rail_urban rail rail_electric rail_fast ship" speed="36.11" length="33.09" width="3.50" customShape="1" shape="-191.63,-492.23 -197.45,-507.70 -203.28,-523.20"/>
    </edge>
    <edge id="77549" from="46" to="47" priority="3" type="highway.residential" spreadType="center" length="33.12" shape="-200.41,-543.58 -188.87,-472.82">
        <lane id="77549_0" index="0" disallow="pedestrian tram rail_urban rail rail_electric rail_fast ship" speed="36.11" length="33.12" width="3.50" customShape="1" shape="-200.00,-524.42 -194.18,-508.93 -188.34,-493.42"/>
    </edge>
    <edge id="77551" from="48" to="47" priority="3" type="highway.residential" spreadType="center" length="0.24" shape="-166.75,-436.19 -192.02,-471.56">
        <lane id="77551_0" index="0" disallow="pedestrian tram rail_urban rail rail_electric rail_fast ship" speed="36.11" length="0.24" width="3.50" customShape="1" shape="-178.55,-454.48 -178.63,-454.71"/>
    </edge>
    <edge id="77552" from="47" to="48" priority="3" type="highway.residential" spreadType="center" length="0.26" shape="-189.18,-473.59 -163.91,-438.22">
        <lane id="77552_0" index="0" disallow="pedestrian tram rail_urban rail rail_electric rail_fast ship" speed="36.11" length="0.26" width="3.50" customShape="1" shape="-175.29,-455.76 -175.25,-455.64 -175.21,-455.51"/>
    </edge>
    <edge id="77554" from="29" to="48" priority="3" type="highway.residential" spreadType="center" length="40.27" shape="-163.49,-378.04 -167.12,-437.21">
        <lane id="77554_0" index="0" disallow="pedestrian tram rail_urban rail rail_electric rail_fast ship" speed="36.11" length="40.27" width="3.50" customShape="1" shape="-163.49,-378.04 -166.77,-397.91 -170.06,-417.77"/>
    </edge>
    <edge id="77555" from="48" to="20" priority="3" type="highway.residential" spreadType="center" length="40.25" shape="-163.63,-437.42 -160.04,-378.61">
        <lane id="77555_0" index="0" disallow="pedestrian tram rail_urban rail rail_electric rail_fast ship" speed="36.11" length="40.25" width="3.50" customShape="1" shape="-166.60,-418.32 -163.32,-398.48 -160.04,-378.61"/>
    </edge>

    <junction id="19" type="dead_end" x="-80.91" y="-441.15" incLanes="77027_0" intLanes="" shape="-80.93,-442.90 -80.90,-439.40" rightOfWay="edgePriority"/>
    <junction id="20" type="dead_end" x="-160.04" y="-378.61" incLanes="77555_0" intLanes="" shape="-158.31,-378.90 -161.76,-378.33" rightOfWay="edgePriority"/>
    <junction id="25" type="dead_end" x="-240.60" y="-624.67" incLanes="77545_0" intLanes="" shape="-242.24,-624.04 -238.97,-625.30" rightOfWay="edgePriority"/>
    <junction id="26" type="dead_end" x="-118.88" y="-560.04" incLanes="76958_0" intLanes="" shape="-119.12,-561.78 -118.64,-558.31" rightOfWay="edgePriority"/>
    <junction id="27" type="dead_end" x="-80.88" y="-437.65" incLanes="" intLanes="" shape="-80.90,-439.40 -80.86,-435.90" rightOfWay="edgePriority"/>
    <junction id="28" type="dead_end" x="-118.30" y="-556.59" incLanes="" intLanes="" shape="-118.54,-558.32 -118.06,-554.86" rightOfWay="edgePriority"/>
    <junction id="29" type="dead_end" x="-163.49" y="-378.04" incLanes="" intLanes="" shape="-161.76,-378.33 -165.21,-377.76" rightOfWay="edgePriority"/>
    <junction id="31" type="dead_end" x="-301.35" y="-479.39" incLanes="77459_0" intLanes="" shape="-303.01,-478.82 -299.70,-479.96" rightOfWay="edgePriority"/>
    <junction id="34" type="dead_end" x="-237.35" y="-625.97" incLanes="" intLanes="" shape="-238.98,-625.34 -235.72,-626.60" rightOfWay="edgePriority"/>
    <junction id="38" type="dead_end" x="-298.03" y="-480.47" incLanes="" intLanes="" shape="-299.68,-479.91 -296.38,-481.04" rightOfWay="edgePriority"/>
    <junction id="39" type="dead_end" x="-366.57" y="-404.87" incLanes="76932_0" intLanes="" shape="-366.64,-403.13 -366.50,-406.62" rightOfWay="edgePriority"/>
    <junction id="40" type="dead_end" x="-281.11" y="-337.89" incLanes="77238_0" intLanes="" shape="-279.37,-337.71 -282.85,-338.06" rightOfWay="edgePriority"/>
    <junction id="43" type="dead_end" x="-284.59" y="-338.23" incLanes="" intLanes="" shape="-282.85,-338.05 -286.33,-338.40" rightOfWay="edgePriority"/>
    <junction id="44" type="dead_end" x="-366.44" y="-408.37" incLanes="" intLanes="" shape="-366.51,-406.62 -366.37,-410.12" rightOfWay="edgePriority"/>
    <junction id="45" type="priority" x="-271.94" y="-458.96" incLanes="76992_0 77460_0 77242_0" intLanes=":45_0_0 :45_1_0 :45_2_0 :45_3_0 :45_4_0 :45_5_0" shape="-252.59,-462.55 -253.09,-469.53 -260.84,-468.43 -266.78,-466.86 -271.75,-465.45 -276.53,-464.85 -281.95,-465.72 -288.82,-468.70 -292.11,-462.54 -286.95,-459.55 -282.77,-456.62 -279.57,-453.75 -277.36,-450.94 -276.13,-448.19 -275.89,-445.50 -268.92,-444.86 -268.04,-449.97 -266.42,-454.21 -264.07,-457.60 -260.98,-460.11 -257.15,-461.77">
        <request index="0" response="000000" foes="001000" cont="0"/>
        <request index="1" response="000000" foes="111000" cont="0"/>
        <request index="2" response="000000" foes="100000" cont="0"/>
        <request index="3" response="000011" foes="100011" cont="0"/>
        <request index="4" response="000010" foes="000010" cont="0"/>
        <request index="5" response="001110" foes="001110" cont="0"/>
    </junction>
    <junction id="46" type="priority" x="-202.14" y="-543.30" incLanes="77548_0 76959_0 77546_0" intLanes=":46_0_0 :46_1_0 :46_2_0 :46_3_0 :46_4_0 :46_5_0" shape="-204.92,-522.57 -198.37,-525.04 -199.70,-529.93 -199.75,-534.11 -198.51,-537.58 -196.00,-540.34 -192.19,-542.38 -187.11,-543.70 -188.27,-550.60 -194.73,-549.89 -200.31,-550.10 -205.00,-551.23 -208.81,-553.27 -211.74,-556.23 -213.78,-560.11 -220.35,-557.68">
        <request index="0" response="000000" foes="001000" cont="0"/>
        <request index="1" response="110000" foes="111000" cont="0"/>
        <request index="2" response="100000" foes="100000" cont="0"/>