<!-- generated on Tue Feb  9 22:10:40 2021 by Eclipse SUMO netconvert Version 1.8.0
<configuration xmlns:xsi="http://www.w3.org/2001/XMLSchema-instance" xsi:noNamespaceSchemaLocation="http://sumo.dlr.de/xsd/netconvertConfiguration.xsd">

    <input>
        <node-files value="./converted_scenarios/scenario-factory/ITA_Empoli-8_1_I-1-1/ITA_Empoli-8_1_I-1-1.nod.xml"/>
        <edge-files value="./converted_scenarios/scenario-factory/ITA_Empoli-8_1_I-1-1/ITA_Empoli-8_1_I-1-1.edg.xml"/>
        <connection-files value="./converted_scenarios/scenario-factory/ITA_Empoli-8_1_I-1-1/ITA_Empoli-8_1_I-1-1.con.xml"/>
        <tllogic-files value="./converted_scenarios/scenario-factory/ITA_Empoli-8_1_I-1-1/ITA_Empoli-8_1_I-1-1.tll.xml"/>
        <type-files value="/home/zen/commonroad-interactive-benchmarks/install/commonroad-map-tool/crmapconverter/sumo_map/templates/DEU.typ.xml"/>
    </input>

    <output>
        <output-file value="./converted_scenarios/scenario-factory/ITA_Empoli-8_1_I-1-1/ITA_Empoli-8_1_I-1-1.net.xml"/>
    </output>

    <processing>
        <geometry.remove.keep-edges.explicit value="true"/>
        <geometry.avoid-overlap value="true"/>
        <offset.disable-normalization value="true"/>
    </processing>

    <junctions>
        <no-turnarounds value="true"/>
        <junctions.internal-link-detail value="20"/>
    </junctions>

    <report>
        <aggregate-warnings value="5"/>
    </report>

    <random_number>
        <seed value="1234"/>
    </random_number>

</configuration>
--><net xmlns:xsi="http://www.w3.org/2001/XMLSchema-instance" version="1.6" junctionCornerDetail="5" junctionLinkDetail="20" limitTurnSpeed="5.50" xsi:noNamespaceSchemaLocation="http://sumo.dlr.de/xsd/net_file.xsd">

    <location netOffset="0.00,0.00" convBoundary="-388.27,-116.63,-205.40,47.94" origBoundary="-388.27,-121.18,-205.40,47.94" projParameter="!"/>

    <type id="highway.bridleway" priority="1" speed="2.78" allow="pedestrian" oneway="1" width="2.00"/>
    <type id="highway.bus_guideway" priority="1" speed="27.78" allow="bus" oneway="1"/>
    <type id="highway.cycleway" priority="1" speed="8.33" allow="bicycle" oneway="0" width="1.00"/>
    <type id="highway.footway" priority="1" speed="2.78" allow="pedestrian" oneway="1" width="2.00"/>
    <type id="highway.ford" priority="1" speed="2.78" allow="army" oneway="0"/>
    <type id="highway.living_street" priority="2" speed="2.78" disallow="tram rail_urban rail rail_electric rail_fast ship" oneway="0"/>
    <type id="highway.motorway" priority="14" speed="39.44" allow="private emergency authority army vip passenger hov taxi bus coach delivery truck trailer motorcycle evehicle custom1 custom2" oneway="1"/>
    <type id="highway.motorway_link" priority="9" speed="22.22" allow="private emergency authority army vip passenger hov taxi bus coach delivery truck trailer motorcycle evehicle custom1 custom2" oneway="1"/>
    <type id="highway.path" priority="1" speed="2.78" allow="pedestrian bicycle" oneway="0" width="2.00"/>
    <type id="highway.pedestrian" priority="1" speed="2.78" allow="pedestrian" oneway="1" width="2.00"/>
    <type id="highway.primary" priority="12" speed="27.78" disallow="pedestrian tram rail_urban rail rail_electric rail_fast ship" oneway="0"/>
    <type id="highway.primary_link" priority="7" speed="22.22" disallow="pedestrian tram rail_urban rail rail_electric rail_fast ship" oneway="0"/>
    <type id="highway.raceway" priority="15" speed="83.33" allow="vip" oneway="0"/>
    <type id="highway.residential" priority="3" speed="13.89" disallow="pedestrian tram rail_urban rail rail_electric rail_fast ship" oneway="0"/>
    <type id="highway.secondary" priority="11" speed="27.78" disallow="pedestrian tram rail_urban rail rail_electric rail_fast ship" oneway="0"/>
    <type id="highway.secondary_link" priority="6" speed="22.22" disallow="pedestrian tram rail_urban rail rail_electric rail_fast ship" oneway="0"/>
    <type id="highway.service" priority="1" speed="5.56" allow="pedestrian delivery bicycle" oneway="0"/>
    <type id="highway.stairs" priority="1" speed="1.39" allow="pedestrian" oneway="1" width="2.00"/>
    <type id="highway.step" priority="1" speed="1.39" allow="pedestrian" oneway="1" width="2.00"/>
    <type id="highway.steps" priority="1" speed="1.39" allow="pedestrian" oneway="1" width="2.00"/>
    <type id="highway.tertiary" priority="10" speed="22.22" disallow="pedestrian tram rail_urban rail rail_electric rail_fast ship" oneway="0"/>
    <type id="highway.tertiary_link" priority="5" speed="22.22" disallow="pedestrian tram rail_urban rail rail_electric rail_fast ship" oneway="0"/>
    <type id="highway.track" priority="1" speed="5.56" allow="pedestrian motorcycle moped bicycle" oneway="0"/>
    <type id="highway.trunk" priority="13" speed="27.78" disallow="pedestrian bicycle tram rail_urban rail rail_electric rail_fast ship" oneway="0"/>
    <type id="highway.trunk_link" priority="8" speed="22.22" disallow="pedestrian bicycle tram rail_urban rail rail_electric rail_fast ship" oneway="0"/>
    <type id="highway.unclassified" priority="4" speed="13.89" disallow="pedestrian tram rail_urban rail rail_electric rail_fast ship" oneway="0"/>
    <type id="highway.unsurfaced" priority="1" speed="8.33" disallow="tram rail_urban rail rail_electric rail_fast ship" oneway="0"/>
    <type id="railway.highspeed" priority="21" speed="69.44" allow="rail_fast" oneway="1"/>
    <type id="railway.light_rail" priority="19" speed="27.78" allow="rail_urban" oneway="1"/>
    <type id="railway.preserved" priority="16" speed="27.78" allow="rail" oneway="1"/>
    <type id="railway.rail" priority="20" speed="44.44" allow="rail" oneway="1"/>
    <type id="railway.subway" priority="18" speed="27.78" allow="rail_urban" oneway="1"/>
    <type id="railway.tram" priority="17" speed="13.89" allow="tram" oneway="1"/>

    <edge id=":19_0" function="internal">
        <lane id=":19_0_0" index="0" disallow="pedestrian tram rail_urban rail rail_electric rail_fast ship" speed="36.11" length="2.99" width="3.50" shape="-357.53,-27.79 -354.69,-28.73"/>
    </edge>
    <edge id=":28_0" function="internal">
        <lane id=":28_0_0" index="0" disallow="pedestrian tram rail_urban rail rail_electric rail_fast ship" speed="36.11" length="2.93" width="3.50" shape="-345.49,0.12 -348.31,0.92"/>
    </edge>
    <edge id=":32_0" function="internal">
        <lane id=":32_0_0" index="0" disallow="pedestrian tram rail_urban rail rail_electric rail_fast ship" speed="36.11" length="2.95" width="3.50" shape="-349.30,-2.44 -346.46,-3.24"/>
    </edge>
    <edge id=":36_0" function="internal">
        <lane id=":36_0_0" index="0" disallow="pedestrian tram rail_urban rail rail_electric rail_fast ship" speed="36.11" length="5.09" width="3.50" shape="-297.41,-111.58 -292.87,-113.89"/>
    </edge>
    <edge id=":40_0" function="internal">
        <lane id=":40_0_0" index="0" disallow="pedestrian tram rail_urban rail rail_electric rail_fast ship" speed="36.11" length="0.24" width="3.50" shape="-293.49,-109.71 -293.70,-109.60"/>
    </edge>
    <edge id=":43_0" function="internal">
        <lane id=":43_0_0" index="0" disallow="pedestrian tram rail_urban rail rail_electric rail_fast ship" speed="9.37" length="20.08" width="3.50" shape="-272.09,-41.73 -273.19,-41.37 -276.48,-40.15 -279.63,-38.70 -281.56,-37.58 -283.34,-36.27 -284.09,-35.58 -284.76,-34.83 -285.31,-34.04 -285.71,-33.22 -285.96,-32.39 -286.05,-31.53 -285.99,-30.65 -285.75,-29.69"/>
    </edge>
    <edge id=":43_1" function="internal">
        <lane id=":43_1_0" index="0" disallow="pedestrian tram rail_urban rail rail_electric rail_fast ship" speed="10.99" length="26.55" width="3.37" shape="-272.09,-41.73 -276.47,-40.42 -280.94,-39.32 -284.40,-38.72 -286.78,-38.54 -288.06,-38.57 -289.37,-38.74 -290.73,-39.17 -292.04,-39.96 -294.73,-45.23"/>
    </edge>
    <edge id=":43_2" function="internal">
        <lane id=":43_2_0" index="0" disallow="pedestrian tram rail_urban rail rail_electric rail_fast ship" speed="9.62" length="20.29" width="3.50" shape="-288.51,-38.47 -289.36,-42.00 -288.41,-41.77 -287.43,-41.73 -286.45,-41.79 -285.48,-41.90 -283.54,-42.23 -280.68,-42.88 -276.90,-43.92 -273.15,-45.07"/>
    </edge>
    <edge id=":43_3" function="internal">
        <lane id=":43_3_0" index="0" disallow="pedestrian tram rail_urban rail rail_electric rail_fast ship" speed="36.11" length="9.21" width="3.50" shape="-288.51,-38.47 -287.90,-36.20 -285.75,-29.69"/>
    </edge>
    <edge id=":43_4" function="internal">
        <lane id=":43_4_0" index="0" disallow="pedestrian tram rail_urban rail rail_electric rail_fast ship" speed="36.11" length="17.62" width="3.37" shape="-289.05,-28.55 -291.22,-35.10 -294.73,-45.23"/>
    </edge>
    <edge id=":43_5" function="internal">
        <lane id=":43_5_0" index="0" disallow="pedestrian tram rail_urban rail rail_electric rail_fast ship" speed="10.54" length="25.71" width="3.50" shape="-289.06,-28.55 -289.42,-29.94 -289.58,-31.28 -289.52,-32.62 -289.23,-33.94 -288.73,-35.19 -288.05,-36.35 -287.22,-37.41 -286.28,-38.38 -284.17,-40.06 -281.87,-41.47 -278.22,-43.21 -274.43,-44.64 -273.15,-45.07"/>
    </edge>
    <edge id=":44_0" function="internal">
        <lane id=":44_0_0" index="0" disallow="pedestrian tram rail_urban rail rail_electric rail_fast ship" speed="9.73" length="20.58" width="3.50" shape="-294.80,-45.42 -294.18,-42.41 -295.13,-42.57 -296.11,-42.56 -297.08,-42.48 -298.04,-42.35 -299.95,-42.00 -302.80,-41.33 -306.55,-40.30 -311.20,-38.88"/>
    </edge>
    <edge id=":44_1" function="internal">
        <lane id=":44_1_0" index="0" disallow="pedestrian tram rail_urban rail rail_electric rail_fast ship" speed="36.11" length="15.37" width="3.50" shape="-294.80,-45.42 -296.46,-50.91 -299.49,-60.06"/>
    </edge>
    <edge id=":44_2" function="internal">
        <lane id=":44_2_0" index="0" disallow="pedestrian tram rail_urban rail rail_electric rail_fast ship" speed="36.11" length="23.76" width="3.41" shape="-296.17,-61.17 -293.14,-52.01 -288.58,-38.65"/>
    </edge>
    <edge id=":44_3" function="internal">
        <lane id=":44_3_0" index="0" disallow="pedestrian tram rail_urban rail rail_electric rail_fast ship" speed="11.53" length="30.80" width="3.50" shape="-296.17,-61.18 -295.46,-58.54 -295.11,-55.89 -295.09,-54.55 -295.20,-53.22 -295.44,-51.91 -295.81,-50.62 -296.32,-49.39 -296.96,-48.21 -297.71,-47.10 -298.56,-46.07 -299.49,-45.12 -301.56,-43.43 -303.82,-42.00 -306.21,-40.79 -309.93,-39.31 -311.20,-38.88"/>
    </edge>
    <edge id=":44_4" function="internal">
        <lane id=":44_4_0" index="0" disallow="pedestrian tram rail_urban rail rail_electric rail_fast ship" speed="10.45" length="25.16" width="3.50" shape="-312.26,-42.22 -311.18,-42.58 -307.91,-43.87 -305.88,-44.89 -303.97,-46.07 -302.22,-47.45 -301.47,-48.19 -300.78,-48.99 -300.18,-49.84 -299.67,-50.74 -299.26,-51.68 -298.95,-52.66 -298.75,-53.66 -298.64,-54.70 -298.64,-55.72 -298.90,-57.89 -299.49,-60.06"/>
    </edge>
    <edge id=":44_5" function="internal">
        <lane id=":44_5_0" index="0" disallow="pedestrian tram rail_urban rail rail_electric rail_fast ship" speed="11.22" length="27.93" width="3.41" shape="-312.26,-42.22 -306.87,-43.82 -302.48,-44.90 -299.08,-45.50 -296.74,-45.71 -295.50,-45.71 -294.21,-45.58 -292.87,-45.22 -291.55,-44.49 -288.58,-38.65"/>
    </edge>
    <edge id=":45_0" function="internal">
        <lane id=":45_0_0" index="0" disallow="pedestrian tram rail_urban rail rail_electric rail_fast ship" speed="10.50" length="24.43" width="3.50" shape="-299.56,-60.26 -300.36,-62.23 -300.88,-63.16 -301.47,-64.04 -302.15,-64.86 -302.91,-65.60 -303.75,-66.25 -304.65,-66.81 -305.61,-67.28 -306.61,-67.65 -307.63,-67.92 -308.68,-68.12 -310.80,-68.29 -312.92,-68.23 -315.04,-67.98 -318.16,-67.34 -320.19,-66.78"/>
    </edge>
    <edge id=":45_1" function="internal">
        <lane id=":45_1_0" index="0" disallow="pedestrian tram rail_urban rail rail_electric rail_fast ship" speed="36.11" length="30.17" width="3.50" shape="-299.56,-60.26 -304.20,-74.62 -308.84,-88.97"/>
    </edge>
    <edge id=":45_2" function="internal">
        <lane id=":45_2_0" index="0" disallow="pedestrian tram rail_urban rail rail_electric rail_fast ship" speed="36.11" length="30.08" width="3.50" shape="-305.51,-90.02 -300.87,-75.69 -296.25,-61.40"/>
    </edge>
    <edge id=":45_3" function="internal">
        <lane id=":45_3_0" index="0" disallow="pedestrian tram rail_urban rail rail_electric rail_fast ship" speed="11.66" length="31.51" width="3.50" shape="-305.51,-90.03 -304.85,-87.54 -304.46,-84.96 -304.43,-82.33 -304.58,-80.95 -304.85,-79.62 -305.25,-78.31 -305.78,-77.04 -306.43,-75.84 -307.20,-74.71 -308.05,-73.66 -308.98,-72.70 -310.00,-71.80 -312.10,-70.30 -314.35,-69.04 -316.67,-68.00 -320.19,-66.78"/>
    </edge>
    <edge id=":45_4" function="internal">
        <lane id=":45_4_0" index="0" disallow="pedestrian tram rail_urban rail rail_electric rail_fast ship" speed="10.59" length="25.87" width="3.50" shape="-321.20,-70.13 -318.15,-71.18 -316.18,-72.06 -314.29,-73.10 -312.53,-74.34 -311.71,-75.04 -310.95,-75.81 -310.25,-76.63 -309.63,-77.52 -309.10,-78.46 -308.67,-79.44 -308.34,-80.47 -308.11,-81.52 -307.98,-82.59 -307.98,-84.75 -308.29,-86.88 -308.84,-88.97"/>
    </edge>
    <edge id=":45_5" function="internal">
        <lane id=":45_5_0" index="0" disallow="pedestrian tram rail_urban rail rail_electric rail_fast ship" speed="11.58" length="29.85" width="3.50" shape="-321.20,-70.13 -318.83,-70.78 -315.21,-71.50 -312.70,-71.77 -310.15,-71.80 -307.60,-71.54 -306.28,-71.26 -305.01,-70.87 -303.76,-70.36 -302.56,-69.73 -301.42,-68.97 -300.37,-68.10 -299.42,-67.12 -298.58,-66.06 -297.85,-64.94 -297.21,-63.75 -296.25,-61.40"/>
    </edge>
    <edge id=":46_0" function="internal">
        <lane id=":46_0_0" index="0" disallow="pedestrian tram rail_urban rail rail_electric rail_fast ship" speed="11.23" length="28.29" width="3.50" shape="-280.10,-1.51 -281.28,-4.55 -282.27,-6.48 -283.46,-8.31 -284.86,-9.98 -286.48,-11.42 -287.38,-12.04 -288.32,-12.59 -289.30,-13.05 -290.33,-13.42 -291.37,-13.72 -293.52,-14.06 -295.70,-14.11 -297.87,-13.91 -300.01,-13.52 -302.11,-12.96"/>
    </edge>
    <edge id=":46_1" function="internal">
        <lane id=":46_1_0" index="0" disallow="pedestrian tram rail_urban rail rail_electric rail_fast ship" speed="36.11" length="28.37" width="3.50" shape="-280.10,-1.51 -284.55,-14.95 -289.01,-28.44"/>
    </edge>
    <edge id=":46_2" function="internal">
        <lane id=":46_2_0" index="0" disallow="pedestrian tram rail_urban rail rail_electric rail_fast ship" speed="36.11" length="28.37" width="3.50" shape="-285.70,-29.57 -281.23,-16.05 -276.78,-2.64"/>
    </edge>
    <edge id=":46_3" function="internal">
        <lane id=":46_3_0" index="0" disallow="pedestrian tram rail_urban rail rail_electric rail_fast ship" speed="10.58" length="26.25" width="3.50" shape="-285.70,-29.57 -285.34,-28.23 -285.18,-26.93 -285.21,-25.63 -285.45,-24.34 -285.90,-23.11 -286.53,-21.97 -287.30,-20.91 -288.19,-19.95 -289.17,-19.08 -291.30,-17.55 -293.57,-16.27 -297.16,-14.66 -300.86,-13.35 -302.11,-12.96"/>
    </edge>
    <edge id=":46_4" function="internal">
        <lane id=":46_4_0" index="0" disallow="pedestrian tram rail_urban rail rail_electric rail_fast ship" speed="9.43" length="20.58" width="3.50" shape="-303.12,-16.31 -302.04,-16.64 -298.82,-17.77 -295.72,-19.11 -293.79,-20.14 -291.99,-21.34 -291.21,-21.97 -290.48,-22.67 -289.86,-23.41 -289.35,-24.18 -288.99,-24.98 -288.77,-25.79 -288.70,-26.63 -288.77,-27.50 -289.01,-28.44"/>
    </edge>
    <edge id=":46_5" function="internal">
        <lane id=":46_5_0" index="0" disallow="pedestrian tram rail_urban rail rail_electric rail_fast ship" speed="12.23" length="33.74" width="3.50" shape="-303.12,-16.31 -300.69,-16.95 -298.19,-17.41 -295.63,-17.64 -293.03,-17.58 -290.45,-17.17 -289.13,-16.81 -287.88,-16.35 -286.66,-15.78 -285.50,-15.11 -284.37,-14.32 -282.41,-12.58 -280.72,-10.57 -279.31,-8.40 -278.14,-6.11 -276.78,-2.64"/>
    </edge>
    <edge id=":6_0" function="internal">
        <lane id=":6_0_0" index="0" disallow="pedestrian tram rail_urban rail rail_electric rail_fast ship" speed="36.11" length="3.00" width="3.50" shape="-353.61,-25.39 -356.46,-24.45"/>
    </edge>

    <edge id="3655" from="34" to="45" priority="3" type="highway.residential" spreadType="center" length="70.01" shape="-388.27,-50.11 -309.07,-74.61">
        <lane id="3655_0" index="0" disallow="pedestrian tram rail_urban rail rail_electric rail_fast ship" speed="36.11" length="70.01" width="3.50" customShape="1" shape="-388.27,-50.11 -355.98,-59.75 -321.19,-70.14"/>
    </edge>
    <edge id="3656" from="45" to="26" priority="3" type="highway.residential" spreadType="center" length="69.99" shape="-308.04,-71.26 -387.26,-46.76">
        <lane id="3656_0" index="0" disallow="pedestrian tram rail_urban rail rail_electric rail_fast ship" speed="36.11" length="69.99" width="3.50" customShape="1" shape="-320.19,-66.78 -354.98,-56.39 -387.26,-46.76"/>
    </edge>
    <edge id="3785" from="31" to="43" priority="3" type="highway.residential" spreadType="center" length="70.00" shape="-205.40,-63.01 -283.37,-36.52">
        <lane id="3785_0" index="0" disallow="pedestrian tram rail_urban rail rail_electric rail_fast ship" speed="36.11" length="70.00" width="3.50" customShape="1" shape="-205.40,-63.01 -237.87,-52.65 -272.09,-41.73"/>
    </edge>
    <edge id="3786" from="43" to="16" priority="3" type="highway.residential" spreadType="center" length="70.00" shape="-284.49,-39.84 -206.46,-66.34">
        <lane id="3786_0" index="0" disallow="pedestrian tram rail_urban rail rail_electric rail_fast ship" speed="36.11" length="70.00" width="3.50" customShape="1" shape="-273.15,-45.07 -238.93,-55.98 -206.46,-66.34"/>
    </edge>
    <edge id="4006" from="36" to="37" priority="3" type="highway.residential" spreadType="center" length="67.46">
        <lane id="4006_0" index="0" disallow="pedestrian tram rail_urban rail rail_electric rail_fast ship" speed="36.11" length="67.46" width="3.50" customShape="1" shape="-292.87,-113.89 -286.32,-116.93 -281.54,-118.78 -277.62,-119.96 -274.11,-120.71 -271.06,-121.09 -267.99,-121.18 -264.93,-120.99 -263.41,-120.77 -262.40,-120.59 -260.91,-120.21 -259.99,-119.76 -258.80,-118.80 -257.80,-117.63 -256.92,-116.37 -256.00,-115.14 -255.25,-114.45 -254.79,-114.23 -252.79,-113.78 -249.23,-113.30 -245.65,-113.22 -242.08,-113.50 -238.04,-114.20 -233.58,-115.37 -229.88,-116.63"/>
    </edge>
    <edge id="4007" from="41" to="40" priority="3" type="highway.residential" spreadType="center" length="69.88">
        <lane id="4007_0" index="0" disallow="pedestrian tram rail_urban rail rail_electric rail_fast ship" speed="36.11" length="69.88" width="3.50" customShape="1" shape="-228.00,-113.58 -232.38,-112.08 -236.95,-110.86 -241.12,-110.10 -244.84,-109.76 -248.59,-109.77 -252.32,-110.16 -254.43,-110.57 -255.12,-110.79 -256.27,-111.40 -257.78,-112.45 -259.05,-113.62 -260.12,-114.78 -261.09,-115.78 -261.65,-116.29 -262.55,-116.88 -263.05,-117.10 -264.41,-117.37 -267.31,-117.65 -270.20,-117.63 -273.08,-117.33 -276.44,-116.65 -280.22,-115.53 -284.88,-113.74 -291.77,-110.55 -293.49,-109.71"/>
    </edge>
    <edge id="4010" from="40" to="45" priority="3" type="highway.residential" spreadType="center" length="25.35" shape="-293.60,-109.66 -306.97,-72.26">
        <lane id="4010_0" index="0" disallow="pedestrian tram rail_urban rail rail_electric rail_fast ship" speed="36.11" length="25.35" width="3.50" customShape="1" shape="-293.70,-109.60 -296.37,-108.18 -299.02,-106.47 -300.68,-105.19 -302.22,-103.76 -303.60,-102.18 -304.75,-100.43 -305.22,-99.49 -305.62,-98.52 -305.93,-97.51 -306.14,-96.48 -306.26,-95.44 -306.23,-93.34 -305.87,-91.28 -305.59,-90.27 -305.55,-90.15 -305.50,-90.00"/>
    </edge>
    <edge id="4153" from="32" to="46" priority="3" type="highway.residential" spreadType="center" length="45.28" shape="-347.87,-2.81 -289.83,-16.94">
        <lane id="4153_0" index="0" disallow="pedestrian tram rail_urban rail rail_electric rail_fast ship" speed="36.11" length="45.28" width="3.50" customShape="1" shape="-346.46,-3.24 -325.51,-9.56 -303.11,-16.31"/>
    </edge>
    <edge id="4154" from="46" to="28" priority="3" type="highway.residential" spreadType="center" length="45.31" shape="-289.00,-13.54 -346.89,0.54">
        <lane id="4154_0" index="0" disallow="pedestrian tram rail_urban rail rail_electric rail_fast ship" speed="36.11" length="45.31" width="3.50" customShape="1" shape="-302.11,-12.96 -324.50,-6.21 -345.49,0.12"/>
    </edge>
    <edge id="4159" from="44" to="6" priority="3" type="highway.residential" spreadType="center" length="44.50" shape="-299.79,-46.26 -355.04,-24.94">
        <lane id="4159_0" index="0" disallow="pedestrian tram rail_urban rail rail_electric rail_fast ship" speed="36.11" length="44.50" width="3.50" customShape="1" shape="-311.20,-38.88 -333.13,-31.91 -353.61,-25.39"/>
    </edge>
    <edge id="4160" from="19" to="44" priority="3" type="highway.residential" spreadType="center" length="44.52" shape="-356.11,-28.27 -301.05,-49.52">
        <lane id="4160_0" index="0" disallow="pedestrian tram rail_urban rail rail_electric rail_fast ship" speed="36.11" length="44.52" width="3.50" customShape="1" shape="-354.69,-28.73 -334.19,-35.25 -312.26,-42.22"/>
    </edge>
    <edge id="4550" from="44" to="45" priority="3" type="highway.residential" spreadType="center" length="0.22" shape="-302.13,-47.33 -310.28,-72.50">
        <lane id="4550_0" index="0" disallow="pedestrian tram rail_urban rail rail_electric rail_fast ship" speed="36.11" length="0.22" width="3.50" customShape="1" shape="-299.49,-60.06 -299.56,-60.27"/>
    </edge>
    <edge id="4551" from="45" to="44" priority="3" type="highway.residential" spreadType="center" length="0.30" shape="-306.96,-73.57 -298.80,-48.41">
        <lane id="4551_0" index="0" disallow="pedestrian tram rail_urban rail rail_electric rail_fast ship" speed="36.11" length="0.30" width="3.50" customShape="1" shape="-296.25,-61.40 -296.19,-61.24 -296.15,-61.12"/>
    </edge>
    <edge id="4553" from="43" to="44" priority="3" type="highway.residential" spreadType="center" length="0.20" shape="-284.74,-36.74 -301.44,-46.49">
        <lane id="4553_0" index="0" disallow="pedestrian tram rail_urban rail rail_electric rail_fast ship" speed="36.11" length="0.20" width="3.37" customShape="1" shape="-294.73,-45.23 -294.80,-45.42"/>
    </edge>
    <edge id="4554" from="44" to="43" priority="3" type="highway.residential" spreadType="center" length="0.19" shape="-299.74,-49.41 -283.04,-39.66">
        <lane id="4554_0" index="0" disallow="pedestrian tram rail_urban rail rail_electric rail_fast ship" speed="36.11" length="0.19" width="3.41" customShape="1" shape="-288.58,-38.65 -288.51,-38.47"/>
    </edge>
    <edge id="4556" from="46" to="43" priority="3" type="highway.residential" spreadType="center" length="0.20" shape="-291.19,-15.51 -285.59,-38.60">
        <lane id="4556_0" index="0" disallow="pedestrian tram rail_urban rail rail_electric rail_fast ship" speed="36.11" length="0.20" width="3.50" customShape="1" shape="-289.01,-28.44 -289.08,-28.63"/>
    </edge>
    <edge id="4557" from="43" to="46" priority="3" type="highway.residential" spreadType="center" length="0.20" shape="-282.19,-37.78 -287.80,-14.69">
        <lane id="4557_0" index="0" disallow="pedestrian tram rail_urban rail rail_electric rail_fast ship" speed="36.11" length="0.20" width="3.50" customShape="1" shape="-285.75,-29.69 -285.68,-29.50"/>
    </edge>
    <edge id="4559" from="35" to="46" priority="3" type="highway.residential" spreadType="center" length="52.12" shape="-263.72,47.94 -291.09,-14.56">
        <lane id="4559_0" index="0" disallow="pedestrian tram rail_urban rail rail_electric rail_fast ship" speed="36.11" length="52.12" width="3.50" customShape="1" shape="-263.72,47.94 -271.91,23.22 -280.11,-1.54"/>
    </edge>
    <edge id="4560" from="46" to="23" priority="3" type="highway.residential" spreadType="center" length="52.12" shape="-287.88,-15.97 -260.40,46.84">
        <lane id="4560_0" index="0" disallow="pedestrian tram rail_urban rail rail_electric rail_fast ship" speed="36.11" length="52.12" width="3.50" customShape="1" shape="-276.78,-2.64 -268.59,22.12 -260.40,46.84"/>
    </edge>
    <edge id="6535" from="45" to="36" priority="3" type="highway.residential" spreadType="center" length="27.87" shape="-310.25,-73.48 -295.16,-112.78">
        <lane id="6535_0" index="0" disallow="pedestrian tram rail_urban rail rail_electric rail_fast ship" speed="36.11" length="27.87" width="3.50" customShape="1" shape="-308.84,-88.97 -308.88,-89.09 -308.93,-89.24 -309.27,-90.45 -309.72,-92.94 -309.79,-95.48 -309.67,-96.82 -309.43,-98.11 -309.08,-99.37 -308.62,-100.59 -308.05,-101.79 -306.70,-103.94 -305.08,-105.88 -303.28,-107.59 -301.34,-109.12 -298.31,-111.10 -297.41,-111.58"/>
    </edge>
    <edge id="6971" from="28" to="33" priority="3" type="highway.residential" spreadType="center" length="27.65">
        <lane id="6971_0" index="0" disallow="pedestrian tram rail_urban rail rail_electric rail_fast ship" speed="36.11" length="27.65" width="3.50" customShape="1" shape="-348.31,0.92 -350.74,1.55 -354.65,2.21 -357.29,2.38 -359.94,2.26 -361.25,2.06 -362.53,1.76 -363.79,1.34 -365.00,0.80 -366.14,0.13 -367.19,-0.67 -368.15,-1.58 -368.99,-2.60 -369.73,-3.70 -370.36,-4.86 -371.33,-7.33"/>
    </edge>
    <edge id="6972" from="39" to="32" priority="3" type="highway.residential" spreadType="center" length="22.22">
        <lane id="6972_0" index="0" disallow="pedestrian tram rail_urban rail rail_electric rail_fast ship" speed="36.11" length="22.22" width="3.50" customShape="1" shape="-368.01,-8.44 -367.20,-6.38 -366.71,-5.52 -366.14,-4.69 -365.48,-3.94 -364.74,-3.28 -363.93,-2.71 -363.05,-2.23 -362.11,-1.85 -361.12,-1.56 -360.09,-1.35 -359.05,-1.22 -356.83,-1.16 -354.62,-1.33 -351.24,-1.92 -349.30,-2.44"/>
    </edge>
    <edge id="6973" from="38" to="19" priority="3" type="highway.residential" spreadType="center" length="27.77">
        <lane id="6973_0" index="0" disallow="pedestrian tram rail_urban rail rail_electric rail_fast ship" speed="36.11" length="27.77" width="3.50" customShape="1" shape="-371.40,-7.56 -372.02,-10.15 -372.18,-11.48 -372.22,-12.80 -372.14,-14.13 -371.91,-15.44 -371.54,-16.72 -371.03,-17.95 -370.39,-19.11 -369.62,-20.20 -368.76,-21.22 -367.82,-22.15 -365.73,-23.80 -363.47,-25.20 -361.09,-26.39 -357.53,-27.79"/>
    </edge>
    <edge id="7004" from="6" to="17" priority="3" type="highway.residential" spreadType="center" length="22.29">
        <lane id="7004_0" index="0" disallow="pedestrian tram rail_urban rail rail_electric rail_fast ship" speed="36.11" length="22.29" width="3.50" customShape="1" shape="-356.46,-24.45 -359.39,-23.31 -361.42,-22.32 -363.33,-21.17 -365.09,-19.82 -365.84,-19.10 -366.54,-18.32 -367.16,-17.49 -367.68,-16.62 -368.09,-15.71 -368.40,-14.76 -368.59,-13.77 -368.68,-12.76 -368.67,-11.74 -368.56,-10.73 -368.04,-8.54"/>
    </edge>

    <junction id="16" type="dead_end" x="-206.46" y="-66.34" incLanes="3786_0" intLanes="" shape="-207.00,-68.01 -205.93,-64.68" rightOfWay="edgePriority"/>
    <junction id="17" type="dead_end" x="-368.04" y="-8.54" incLanes="7004_0" intLanes="" shape="-366.34,-8.94 -369.74,-8.14" rightOfWay="edgePriority"/>
    <junction id="19" type="priority" x="-356.11" y="-28.27" incLanes="6973_0" intLanes=":19_0_0" shape="-354.15,-27.06 -355.22,-30.39 -358.08,-29.46 -356.98,-26.13" rightOfWay="edgePriority">
        <request index="0" response="0" foes="0" cont="0"/>
    </junction>
    <junction id="23" type="dead_end" x="-260.40" y="46.84" incLanes="4560_0" intLanes="" shape="-258.74,46.29 -262.06,47.39" rightOfWay="edgePriority"/>
    <junction id="26" type="dead_end" x="-387.26" y="-46.76" incLanes="3656_0" intLanes="" shape="-386.76,-45.08 -387.76,-48.43" rightOfWay="edgePriority"/>
    <junction id="28" type="priority" x="-346.89" y="0.54" incLanes="4154_0" intLanes=":28_0_0" shape="-344.98,1.80 -345.99,-1.55 -348.75,-0.78 -347.87,2.61" rightOfWay="edgePriority">
        <request index="0" response="0" foes="0" cont="0"/>
    </junction>
    <junction id="31" type="dead_end" x="-205.40" y="-63.01" incLanes="" intLanes="" shape="-205.94,-64.67 -204.87,-61.34" rightOfWay="edgePriority"/>
    <junction id="32" type="priority" x="-347.87" y="-2.81" incLanes="6972_0" intLanes=":32_0_0" shape="-345.96,-1.56 -346.97,-4.91 -349.74,-4.13 -348.85,-0.75" rightOfWay="edgePriority">
        <request index="0" response="0" foes="0" cont="0"/>
    </junction>
    <junction id="33" type="dead_end" x="-371.33" y="-7.33" incLanes="6971_0" intLanes="" shape="-372.96,-6.69 -369.70,-7.97" rightOfWay="edgePriority"/>
    <junction id="34" type="dead_end" x="-388.27" y="-50.11" incLanes="" intLanes="" shape="-387.77,-48.43 -388.77,-51.78" rightOfWay="edgePriority"/>
    <junction id="35" type="dead_end" x="-263.72" y="47.94" incLanes="" intLanes="" shape="-262.06,47.39 -265.39,48.49" rightOfWay="edgePriority"/>
    <junction id="36" type="priority" x="-295.16" y="-112.78" incLanes="6535_0" intLanes=":36_0_0" shape="-292.11,-112.32 -293.64,-115.47 -298.23,-113.12 -296.58,-110.04" rightOfWay="edgePriority">
        <request index="0" response="0" foes="0" cont="0"/>
    </junction>
    <junction id="37" type="dead_end" x="-229.88" y="-116.63" incLanes="4006_0" intLanes="" shape="-230.45,-118.29 -229.32,-114.98" rightOfWay="edgePriority"/>
    <junction id="38" type="dead_end" x="-371.40" y="-7.56" incLanes="" intLanes="" shape="-369.70,-7.97 -373.10,-7.16" rightOfWay="edgePriority"/>
    <junction id="39" type="dead_end" x="-368.01" y="-8.44" incLanes="" intLanes="" shape="-369.64,-7.79 -366.38,-9.08" rightOfWay="edgePriority"/>