<routes>
	<vehicle depart="0.1" departLane="0" departPos="24.60028663544969" departSpeed="2.5632186" id="37" type="bicycle">
		<route edges="4010 3656"/>
	</vehicle>
	<vehicle depart="0.1" departLane="0" departPos="15.225129285368109" departSpeed="6.8963681" id="39" type="bicycle">
		<route edges=":45_0 3656"/>
	</vehicle>
	<vehicle depart="0.1" departLane="0" departPos="14.214433488890757" departSpeed="2.0618737" id="38" type="passenger">
		<route edges=":45_3 3656"/>
	</vehicle>
	<vehicle depart="0.1" departLane="0" departPos="51.12733878457518" departSpeed="3.9797949" id="311" type="passenger">
		<route edges="3655 4551"/>
	</vehicle>
	<vehicle depart="0.1" departLane="0" departPos="15.472885865977508" departSpeed="6.8791845" id="312" type="passenger">
		<route edges=":44_4 4550 6535 4006"/>
	</vehicle>
	<vehicle depart="0.1" departLane="0" departPos="2.5" departSpeed="5.507461" id="313" type="passenger">
		<route edges=":44_4 4550 3656"/>
	</vehicle>
	<vehicle depart="0.1" departLane="0" departPos="38.22163700043318" departSpeed="4.524797" id="334" type="passenger">
		<route edges="4160 4554"/>
	</vehicle>
	<vehicle depart="0.1" departLane="0" departPos="27.74357349422706" departSpeed="3.6749312" id="339" type="passenger">
		<route edges="4160 4554"/>
	</vehicle>
	<vehicle depart="0.1" departLane="0" departPos="16.188370423056213" departSpeed="4.6864139" id="30" type="truck">
		<route edges=":45_5 4551 4159"/>
	</vehicle>
	<vehicle depart="0.1" departLane="0" departPos="35.29503770840566" departSpeed="3.3154469" id="328" type="truck">
		<route edges="3655 4551"/>
	</vehicle>
</routes>
