<routes>
	<vehicle depart="0.1" departLane="1" departPos="20.09273871528001" departSpeed="1.5630565" id="314" type="bicycle">
		<route edges="2045 1697"/>
	</vehicle>
	<vehicle depart="0.1" departLane="0" departPos="31.755986347821935" departSpeed="6.8291863" id="335" type="bus">
		<route edges=":20_0 2698 2053"/>
	</vehicle>
	<vehicle depart="0.1" departLane="1" departPos="16.254399638994734" departSpeed="1.9149858" id="37" type="passenger">
		<route edges="2045 1697"/>
	</vehicle>
	<vehicle depart="0.1" departLane="0" departPos="22.120613112873368" departSpeed="0.05039086" id="326" type="passenger">
		<route edges="3877 2045"/>
	</vehicle>
	<vehicle depart="0.1" departLane="0" departPos="9.642951135573185" departSpeed="0.99311173" id="328" type="passenger">
		<route edges="3877 2045"/>
	</vehicle>
	<vehicle depart="0.1" departLane="0" departPos="2.5" departSpeed="11.990793" id="337" type="passenger">
		<route edges="2697 2043 3279"/>
	</vehicle>
	<vehicle depart="0.1" departLane="0" departPos="4.910248664530792" departSpeed="8.5771063" id="340" type="passenger">
		<route edges=":20_0 2698"/>
	</vehicle>
	<vehicle depart="0.1" departLane="0" departPos="11.28050212259643" departSpeed="7.8779364" id="341" type="passenger">
		<route edges="2045 2698"/>
	</vehicle>
	<vehicle depart="0.1" departLane="0" departPos="25.315022226577923" departSpeed="7.8351855" id="343" type="passenger">
		<route edges="3876 2045 2698"/>
	</vehicle>
	<vehicle depart="0.1" departLane="1" departPos="3.75" departSpeed="0.47280342" id="322" type="truck">
		<route edges="2045 1697"/>
	</vehicle>
</routes>
