<!-- generated on Tue Feb  9 22:09:03 2021 by Eclipse SUMO netconvert Version 1.8.0
<configuration xmlns:xsi="http://www.w3.org/2001/XMLSchema-instance" xsi:noNamespaceSchemaLocation="http://sumo.dlr.de/xsd/netconvertConfiguration.xsd">

    <input>
        <node-files value="./converted_scenarios/scenario-factory/DEU_Hennigsdorf-5_2_I-1-1/DEU_Hennigsdorf-5_2_I-1-1.nod.xml"/>
        <edge-files value="./converted_scenarios/scenario-factory/DEU_Hennigsdorf-5_2_I-1-1/DEU_Hennigsdorf-5_2_I-1-1.edg.xml"/>
        <connection-files value="./converted_scenarios/scenario-factory/DEU_Hennigsdorf-5_2_I-1-1/DEU_Hennigsdorf-5_2_I-1-1.con.xml"/>
        <tllogic-files value="./converted_scenarios/scenario-factory/DEU_Hennigsdorf-5_2_I-1-1/DEU_Hennigsdorf-5_2_I-1-1.tll.xml"/>
        <type-files value="/home/zen/commonroad-interactive-benchmarks/install/commonroad-map-tool/crmapconverter/sumo_map/templates/DEU.typ.xml"/>
    </input>

    <output>
        <output-file value="./converted_scenarios/scenario-factory/DEU_Hennigsdorf-5_2_I-1-1/DEU_Hennigsdorf-5_2_I-1-1.net.xml"/>
    </output>

    <processing>
        <geometry.remove.keep-edges.explicit value="true"/>
        <geometry.avoid-overlap value="true"/>
        <offset.disable-normalization value="true"/>
    </processing>

    <junctions>
        <no-turnarounds value="true"/>
        <junctions.internal-link-detail value="20"/>
    </junctions>

    <report>
        <aggregate-warnings value="5"/>
    </report>

    <random_number>
        <seed value="1234"/>
    </random_number>

</configuration>
--><net xmlns:xsi="http://www.w3.org/2001/XMLSchema-instance" version="1.6" junctionCornerDetail="5" junctionLinkDetail="20" limitTurnSpeed="5.50" xsi:noNamespaceSchemaLocation="http://sumo.dlr.de/xsd/net_file.xsd">

    <location netOffset="0.00,0.00" convBoundary="88.50,-773.97,190.68,-633.15" origBoundary="86.77,-773.97,190.68,-633.15" projParameter="!"/>

    <type id="highway.bridleway" priority="1" speed="2.78" allow="pedestrian" oneway="1" width="2.00"/>
    <type id="highway.bus_guideway" priority="1" speed="27.78" allow="bus" oneway="1"/>
    <type id="highway.cycleway" priority="1" speed="8.33" allow="bicycle" oneway="0" width="1.00"/>
    <type id="highway.footway" priority="1" speed="2.78" allow="pedestrian" oneway="1" width="2.00"/>
    <type id="highway.ford" priority="1" speed="2.78" allow="army" oneway="0"/>
    <type id="highway.living_street" priority="2" speed="2.78" disallow="tram rail_urban rail rail_electric rail_fast ship" oneway="0"/>
    <type id="highway.motorway" priority="14" speed="39.44" allow="private emergency authority army vip passenger hov taxi bus coach delivery truck trailer motorcycle evehicle custom1 custom2" oneway="1"/>
    <type id="highway.motorway_link" priority="9" speed="22.22" allow="private emergency authority army vip passenger hov taxi bus coach delivery truck trailer motorcycle evehicle custom1 custom2" oneway="1"/>
    <type id="highway.path" priority="1" speed="2.78" allow="pedestrian bicycle" oneway="0" width="2.00"/>
    <type id="highway.pedestrian" priority="1" speed="2.78" allow="pedestrian" oneway="1" width="2.00"/>
    <type id="highway.primary" priority="12" speed="27.78" disallow="pedestrian tram rail_urban rail rail_electric rail_fast ship" oneway="0"/>
    <type id="highway.primary_link" priority="7" speed="22.22" disallow="pedestrian tram rail_urban rail rail_electric rail_fast ship" oneway="0"/>
    <type id="highway.raceway" priority="15" speed="83.33" allow="vip" oneway="0"/>
    <type id="highway.residential" priority="3" speed="13.89" disallow="pedestrian tram rail_urban rail rail_electric rail_fast ship" oneway="0"/>
    <type id="highway.secondary" priority="11" speed="27.78" disallow="pedestrian tram rail_urban rail rail_electric rail_fast ship" oneway="0"/>
    <type id="highway.secondary_link" priority="6" speed="22.22" disallow="pedestrian tram rail_urban rail rail_electric rail_fast ship" oneway="0"/>
    <type id="highway.service" priority="1" speed="5.56" allow="pedestrian delivery bicycle" oneway="0"/>
    <type id="highway.stairs" priority="1" speed="1.39" allow="pedestrian" oneway="1" width="2.00"/>
    <type id="highway.step" priority="1" speed="1.39" allow="pedestrian" oneway="1" width="2.00"/>
    <type id="highway.steps" priority="1" speed="1.39" allow="pedestrian" oneway="1" width="2.00"/>
    <type id="highway.tertiary" priority="10" speed="22.22" disallow="pedestrian tram rail_urban rail rail_electric rail_fast ship" oneway="0"/>
    <type id="highway.tertiary_link" priority="5" speed="22.22" disallow="pedestrian tram rail_urban rail rail_electric rail_fast ship" oneway="0"/>
    <type id="highway.track" priority="1" speed="5.56" allow="pedestrian motorcycle moped bicycle" oneway="0"/>
    <type id="highway.trunk" priority="13" speed="27.78" disallow="pedestrian bicycle tram rail_urban rail rail_electric rail_fast ship" oneway="0"/>
    <type id="highway.trunk_link" priority="8" speed="22.22" disallow="pedestrian bicycle tram rail_urban rail rail_electric rail_fast ship" oneway="0"/>
    <type id="highway.unclassified" priority="4" speed="13.89" disallow="pedestrian tram rail_urban rail rail_electric rail_fast ship" oneway="0"/>
    <type id="highway.unsurfaced" priority="1" speed="8.33" disallow="tram rail_urban rail rail_electric rail_fast ship" oneway="0"/>
    <type id="railway.highspeed" priority="21" speed="69.44" allow="rail_fast" oneway="1"/>
    <type id="railway.light_rail" priority="19" speed="27.78" allow="rail_urban" oneway="1"/>
    <type id="railway.preserved" priority="16" speed="27.78" allow="rail" oneway="1"/>
    <type id="railway.rail" priority="20" speed="44.44" allow="rail" oneway="1"/>
    <type id="railway.subway" priority="18" speed="27.78" allow="rail_urban" oneway="1"/>
    <type id="railway.tram" priority="17" speed="13.89" allow="tram" oneway="1"/>

    <edge id=":10_0" function="internal">
        <lane id=":10_0_0" index="0" disallow="pedestrian tram rail_urban rail rail_electric rail_fast ship" speed="36.11" length="2.94" width="3.50" shape="97.37,-736.46 97.74,-733.54"/>
    </edge>
    <edge id=":13_0" function="internal">
        <lane id=":13_0_0" index="0" disallow="pedestrian tram rail_urban rail rail_electric rail_fast ship" speed="36.11" length="2.95" width="3.50" shape="94.88,-765.73 95.26,-762.80"/>
    </edge>
    <edge id=":20_0" function="internal">
        <lane id=":20_0_0" index="0" disallow="pedestrian tram rail_urban rail rail_electric rail_fast ship" speed="36.11" length="40.06" width="3.50" shape="99.84,-682.01 98.82,-690.57 96.81,-714.34 95.88,-721.87"/>
    </edge>
    <edge id=":20_1" function="internal">
        <lane id=":20_1_0" index="0" disallow="pedestrian tram rail_urban rail rail_electric rail_fast ship" speed="12.21" length="34.96" width="3.50" shape="103.31,-682.51 103.15,-683.77 102.89,-687.47 102.95,-690.01 103.25,-692.56 103.84,-695.10 104.77,-697.53 105.40,-698.74 106.12,-699.88 106.93,-700.94 107.84,-701.94 108.83,-702.85 109.88,-703.67 111.02,-704.41 113.33,-705.58 115.77,-706.45 118.24,-707.06 120.71,-707.45"/>
    </edge>
    <edge id=":20_2" function="internal">
        <lane id=":20_2_0" index="0" disallow="pedestrian tram rail_urban rail rail_electric rail_fast ship" speed="11.21" length="29.30" width="3.50" shape="121.14,-703.98 119.01,-703.64 116.90,-703.12 114.86,-702.38 112.93,-701.39 112.02,-700.79 111.17,-700.12 110.38,-699.38 109.65,-698.57 109.00,-697.70 108.43,-696.78 107.93,-695.81 107.17,-693.78 106.69,-691.66 106.45,-689.50 106.41,-687.33 106.63,-684.08 106.77,-683.01"/>
    </edge>
    <edge id=":20_3" function="internal">
        <lane id=":20_3_0" index="0" disallow="pedestrian tram rail_urban rail rail_electric rail_fast ship" speed="12.47" length="35.20" width="3.50" shape="121.14,-703.98 119.87,-703.85 116.13,-703.69 113.56,-703.82 110.99,-704.19 108.46,-704.86 106.03,-705.85 104.82,-706.50 103.69,-707.24 102.63,-708.07 101.64,-708.99 100.71,-710.00 99.17,-712.14 97.94,-714.47 97.01,-716.90 96.34,-719.39 95.88,-721.87"/>
    </edge>
    <edge id=":20_4" function="internal">
        <lane id=":20_4_0" index="0" disallow="pedestrian tram rail_urban rail rail_electric rail_fast ship" speed="11.49" length="29.72" width="3.50" shape="99.34,-722.39 99.74,-720.22 100.31,-718.10 101.10,-716.04 102.14,-714.10 103.44,-712.32 104.19,-711.51 105.01,-710.77 105.88,-710.10 106.80,-709.50 107.78,-708.98 109.82,-708.16 111.95,-707.61 114.14,-707.30 116.34,-707.20 119.64,-707.34 120.71,-707.45"/>
    </edge>
    <edge id=":20_5" function="internal">
        <lane id=":20_5_0" index="0" disallow="pedestrian tram rail_urban rail rail_electric rail_fast ship" speed="36.11" length="40.08" width="3.50" shape="99.34,-722.39 100.77,-713.88 105.53,-690.51 106.77,-683.01"/>
    </edge>
    <edge id=":21_0" function="internal">
        <lane id=":21_0_0" index="0" disallow="pedestrian tram rail_urban rail rail_electric rail_fast ship" speed="36.11" length="8.03" width="3.50" shape="92.00,-744.99 90.23,-752.82"/>
        <lane id=":21_0_1" index="1" disallow="pedestrian tram rail_urban rail rail_electric rail_fast ship" speed="36.11" length="8.02" width="3.50" shape="93.09,-745.15 92.60,-753.16"/>
    </edge>
    <edge id=":22_0" function="internal">
        <lane id=":22_0_0" index="0" disallow="pedestrian tram rail_urban rail rail_electric rail_fast ship" speed="36.11" length="3.28" width="3.50" shape="106.39,-660.67 105.98,-663.92"/>
    </edge>
    <edge id=":22_1" function="internal">
        <lane id=":22_1_0" index="0" disallow="pedestrian tram rail_urban rail rail_electric rail_fast ship" speed="36.11" length="3.16" width="3.50" shape="103.01,-660.30 102.52,-663.42"/>
    </edge>
    <edge id=":8_0" function="internal">
        <lane id=":8_0_0" index="0" disallow="pedestrian tram rail_urban rail rail_electric rail_fast ship" speed="36.11" length="2.94" width="3.50" shape="109.45,-664.35 109.83,-661.43"/>
    </edge>

    <edge id="1696" from="12" to="20" priority="3" type="highway.residential" spreadType="center" length="70.01" shape="190.68,-711.98 107.46,-701.71">
        <lane id="1696_0" index="0" disallow="pedestrian tram rail_urban rail rail_electric rail_fast ship" speed="36.11" length="70.01" width="3.50" customShape="1" shape="190.68,-711.98 171.54,-709.98 121.13,-703.98"/>
    </edge>
    <edge id="1697" from="20" to="3" priority="3" type="highway.residential" spreadType="center" length="70.00" shape="107.03,-705.19 190.25,-715.46">
        <lane id="1697_0" index="0" disallow="pedestrian tram rail_urban rail rail_electric rail_fast ship" speed="36.11" length="70.00" width="3.50" customShape="1" shape="120.71,-707.45 171.23,-713.46 190.25,-715.46"/>
    </edge>
    <edge id="2043" from="20" to="8" priority="3" type="highway.residential" spreadType="center" length="18.85" shape="109.03,-703.56 109.66,-662.89">
        <lane id="2043_0" index="0" disallow="pedestrian tram rail_urban rail rail_electric rail_fast ship" speed="36.11" length="18.85" width="3.50" customShape="1" shape="106.77,-683.01 108.22,-672.96 109.45,-664.35"/>
    </edge>
    <edge id="2045" from="22" to="20" priority="3" type="highway.residential" spreadType="center" length="18.78" shape="104.46,-662.18 103.79,-703.69">
        <lane id="2045_0" index="0" disallow="pedestrian tram rail_urban rail rail_electric rail_fast ship" speed="36.11" length="18.78" width="3.50" customShape="1" shape="102.52,-663.42 101.29,-671.97 99.84,-682.01"/>
        <lane id="2045_1" index="1" disallow="pedestrian tram rail_urban rail rail_electric rail_fast ship" speed="36.11" length="18.78" width="3.50" customShape="1" shape="105.98,-663.92 104.75,-672.47 103.31,-682.51"/>
    </edge>
    <edge id="2051" from="19" to="13" priority="3" type="highway.residential" spreadType="center" length="8.32">
        <lane id="2051_0" index="0" disallow="pedestrian tram rail_urban rail rail_electric rail_fast ship" speed="36.11" length="8.32" width="3.50" customShape="1" shape="93.70,-773.97 94.39,-769.14 94.88,-765.73"/>
    </edge>
    <edge id="2053" from="21" to="14" priority="3" type="highway.residential" spreadType="center" length="20.46">
        <lane id="2053_0" index="0" disallow="pedestrian tram rail_urban rail rail_electric rail_fast ship" speed="36.11" length="20.46" width="3.50" customShape="1" shape="89.68,-752.74 87.46,-768.15 86.77,-772.99"/>
        <lane id="2053_1" index="1" disallow="pedestrian tram rail_urban rail rail_electric rail_fast ship" speed="36.11" length="20.46" width="3.50" customShape="1" shape="93.14,-753.24 90.93,-768.64 90.23,-773.49"/>
    </edge>
    <edge id="2697" from="10" to="20" priority="3" type="highway.residential" spreadType="center" length="11.29" shape="97.53,-735.00 108.95,-703.97">
        <lane id="2697_0" index="0" disallow="pedestrian tram rail_urban rail rail_electric rail_fast ship" speed="36.11" length="11.29" width="3.50" customShape="1" shape="97.74,-733.54 98.44,-728.71 99.35,-722.37"/>
    </edge>
    <edge id="2698" from="20" to="21" priority="3" type="highway.residential" spreadType="center" length="23.44" shape="105.63,-702.87 91.11,-748.91">
        <lane id="2698_0" index="0" disallow="pedestrian tram rail_urban rail rail_electric rail_fast ship" speed="36.11" length="23.44" width="3.50" customShape="1" shape="95.88,-721.87 94.97,-728.21 92.55,-745.07"/>
    </edge>
    <edge id="3279" from="8" to="15" priority="3" type="highway.residential" spreadType="center" length="27.90">
        <lane id="3279_0" index="0" disallow="pedestrian tram rail_urban rail rail_electric rail_fast ship" speed="36.11" length="27.90" width="3.50" customShape="1" shape="109.83,-661.43 110.37,-656.57 111.41,-639.82 112.10,-633.63"/>
    </edge>
    <edge id="3702" from="13" to="10" priority="3" type="highway.residential" spreadType="center" length="26.43">
        <lane id="3702_0" index="0" disallow="pedestrian tram rail_urban rail rail_electric rail_fast ship" speed="36.11" length="26.43" width="3.50" customShape="1" shape="95.26,-762.80 95.80,-757.94 96.84,-741.18 97.37,-736.46"/>
    </edge>
    <edge id="3876" from="23" to="22" priority="3" type="highway.residential" spreadType="center" length="27.74">
        <lane id="3876_0" index="0" disallow="pedestrian tram rail_urban rail rail_electric rail_fast ship" speed="36.11" length="27.74" width="3.50" customShape="1" shape="108.64,-633.15 107.59,-639.15 103.68,-656.44 103.01,-660.30"/>
    </edge>
    <edge id="3877" from="23" to="22" priority="3" type="highway.residential" spreadType="center" length="27.62">
        <lane id="3877_0" index="0" disallow="pedestrian tram rail_urban rail rail_electric rail_fast ship" speed="36.11" length="27.62" width="3.50" customShape="1" shape="108.64,-633.15 107.94,-639.41 106.90,-656.17 106.39,-660.67"/>
    </edge>

    <junction id="10" type="priority" x="97.53" y="-735.00" incLanes="3702_0" intLanes=":10_0_0" shape="96.01,-733.29 99.47,-733.79 99.10,-736.66 95.63,-736.27" rightOfWay="edgePriority">
        <request index="0" response="0" foes="0" cont="0"/>
    </junction>
    <junction id="12" type="dead_end" x="190.68" y="-711.98" incLanes="" intLanes="" shape="190.50,-713.72 190.86,-710.24" rightOfWay="edgePriority"/>
    <junction id="13" type="priority" x="95.09" y="-764.27" incLanes="2051_0" intLanes=":13_0_0" shape="93.52,-762.61 96.99,-762.99 96.61,-765.97 93.15,-765.48" rightOfWay="edgePriority">
        <request index="0" response="0" foes="0" cont="0"/>
    </junction>
    <junction id="14" type="dead_end" x="88.50" y="-773.24" incLanes="2053_0 2053_1" intLanes="" shape="85.03,-772.74 91.96,-773.74" rightOfWay="edgePriority"/>
    <junction id="15" type="dead_end" x="112.10" y="-633.63" incLanes="3279_0" intLanes="" shape="113.84,-633.83 110.37,-633.44" rightOfWay="edgePriority"/>
    <junction id="19" type="dead_end" x="93.70" y="-773.97" incLanes="" intLanes="" shape="91.97,-773.72 95.43,-774.22" rightOfWay="edgePriority"/>
    <junction id="20" type="priority" x="107.28" y="-703.45" incLanes="2045_0 2045_1 1696_0 2697_0" intLanes=":20_0_0 :20_1_0 :20_2_0 :20_3_0 :20_4_0 :20_5_0" shape="98.11,-681.76 108.51,-683.26 108.18,-688.55 108.83,-693.00 110.48,-696.59 113.11,-699.32 116.73,-701.21 121.33,-702.24 120.51,-709.19 115.19,-709.00 110.70,-709.77 107.05,-711.53 104.23,-714.25 102.24,-717.95 101.08,-722.62 94.15,-721.62">
        <request index="0" response="000000" foes="001000" cont="0"/>
        <request index="1" response="110000" foes="111000" cont="0"/>
        <request index="2" response="100000" foes="100000" cont="0"/>
        <request index="3" response="100011" foes="100011" cont="0"/>
        <request index="4" response="000000" foes="000010" cont="0"/>
        <request index="5" response="000000" foes="001110" cont="0"/>
    </junction>
    <junction id="21" type="priority" x="91.11" y="-748.91" incLanes="2698_0" intLanes=":21_0_0 :21_0_1" shape="90.82,-744.82 94.28,-745.32 94.30,-748.34 94.85,-750.47 94.99,-751.76 94.87,-753.49 87.95,-752.50 88.82,-749.61 89.94,-747.71 90.44,-746.52">
        <request index="0" response="00" foes="00" cont="0"/>
        <request index="1" response="00" foes="00" cont="0"/>
    </junction>
    <junction id="22" type="priority" x="104.46" y="-662.18" incLanes="3877_0 3876_0" intLanes=":22_0_0 :22_1_0" shape="101.27,-660.10 108.13,-660.87 107.71,-664.16 100.79,-663.17">
        <request index="0" response="00" foes="00" cont="0"/>
        <request index="1" response="00" foes="00" cont="0"/>
    </junction>
    <junction id="23" type="dead_end" x="108.64" y="-633.15" incLanes="" intLanes="" shape="110.38,-633.34 106.90,-632.96 110.36,-633.45 106.91,-632.85"/>
    <junction id="3" type="dead_end" x="190.25" y="-715.46" incLanes="1697_0" intLanes="" shape="190.07,-717.20 190.44,-713.72" rightOfWay="edgePriority"/>
    <junction id="8" type="priority" x="109.66" y="-662.89" incLanes="2043_0" intLanes=":8_0_0" shape="108.09,-661.24 111.57,-661.62 111.19,-664.60 107.72,-664.11" rightOfWay="edgePriority">
        <request index="0" response="0" foes="0" cont="0"/>
    </junction>

    <connection from="1696" to="2043" fromLane="0" toLane="0" contPos="-4.00" shape="121.14,-703.98 119.01,-703.64 116.90,-703.12 114.86,-702.38 112.93,-701.39 112.02,-700.79 111.17,-700.12 110.38,-699.38 109.65,-698.57 109.00,-697.70 108.43,-696.78 107.93,-695.81 107.17,-693.78 106.69,-691.66 106.45,-689.50 106.41,-687.33 106.63,-684.08 106.77,-683.01" via=":20_2_0" dir="r" state="m"/>
    <connection from="1696" to="2698" fromLane="0" toLane="0" contPos="-4.00" shape="121.14,-703.98 119.87,-703.85 116.13,-703.69 113.56,-703.82 110.99,-704.19 108.46,-704.86 106.03,-705.85 104.82,-706.50 103.69,-707.24 102.63,-708.07 101.64,-708.99 100.71,-710.00 99.17,-712.14 97.94,-714.47 97.01,-716.90 96.34,-719.39 95.88,-721.87" via=":20_3_0" dir="l" state="m"/>
    <connection from="2043" to="3279" fromLane="0" toLane="0" contPos="-4.00" via=":8_0_0" dir="s" state="M"/>
    <connection from="2045" to="2698" fromLane="0" toLane="0" contPos="-4.00" shape="99.84,-682.01 98.82,-690.57 96.81,-714.34 95.88,-721.87" via=":20_0_0" dir="s" state="M"/>
    <connection from="2045" to="1697" fromLane="1" toLane="0" contPos="-4.00" shape="103.31,-682.51 103.15,-683.77 102.89,-687.47 102.95,-690.01 103.25,-692.56 103.84,-695.10 104.77,-697.53 105.40,-698.74 106.12,-699.88 106.93,-700.94 107.84,-701.94 108.83,-702.85 109.88,-703.67 111.02,-704.41 113.33,-705.58 115.77,-706.45 118.24,-707.06 120.71,-707.45" via=":20_1_0" dir="l" state="m"/>
    <connection from="2051" to="3702" fromLane="0" toLane="0" contPos="-4.00" via=":13_0_0" dir="s" state="M"/>
    <connection from="2697" to="1697" fromLane="0" toLane="0" contPos="-4.00" shape="99.34,-722.39 99.74,-720.22 100.31,-718.10 101.10,-716.04 102.14,-714.10 103.44,-712.32 104.19,-711.51 105.01,-710.77 105.88,-710.10 106.80,-709.50 107.78,-708.98 109.82,-708.16 111.95,-707.61 114.14,-707.30 116.34,-707.20 119.64,-707.34 120.71,-707.45" via=":20_4_0" dir="r" state="M"/>
    <connection from="2697" to="2043" fromLane="0" toLane="0" contPos="-4.00" shape="99.34,-722.39 100.77,-713.88 105.53,-690.51 106.77,-683.01" via=":20_5_0" dir="s" state="M"/>
    <connection from="2698" to="2053" fromLane="0" toLane="0" contPos="-4.00" shape="94.07,-734.52 93.02,-740.51 89.11,-757.81 88.16,-763.30" via=":21_0_0" dir="s" state="M"/>
    <connection from="2698" to="2053" fromLane="0" toLane="1" contPos="-4.00" shape="94.07,-734.52 93.37,-740.78 92.32,-757.54 91.62,-763.79" via=":21_0_1" dir="s" state="M"/>
    <connection from="3702" to="2697" fromLane="0" toLane="0" contPos="-4.00" via=":10_0_0" dir="s" state="M"/>
    <connection from="3876" to="2045" fromLane="0" toLane="0" contPos="-4.00" via=":22_1_0" dir="s" state="M"/>
    <connection from="3877" to="2045" fromLane="0" toLane="1" contPos="-4.00" via=":22_0_0" dir="s" state="M"/>

    <connection from=":10_0" to="2697" fromLane="0" toLane="0" dir="s" state="M"/>
    <connection from=":13_0" to="3702" fromLane="0" toLane="0" dir="s" state="M"/>
    <connection from=":20_0" to="2698" fromLane="0" toLane="0" dir="s" state="M"/>
    <connection from=":20_1" to="1697" fromLane="0" toLane="0" dir="l" state="M"/>
    <connection from=":20_2" to="2043" fromLane="0" toLane="0" dir="r" state="M"/>
    <connection from=":20_3" to="2698" fromLane="0" toLane="0" dir="l" state="M"/>
    <connection from=":20_4" to="1697" fromLane="0" toLane="0" dir="r" state="M"/>
    <connection from=":20_5" to="2043" fromLane="0" toLane="0" dir="s" state="M"/>
    <connection from=":21_0" to="2053" fromLane="0" toLane="0" dir="s" state="M"/>
    <connection from=":21_0" to="2053" fromLane="1" toLane="1" dir="s" state="M"/>
    <connection from=":22_0" to="2045" fromLane="0" toLane="1" dir="s" state="M"/>
    <connection from=":22_1" to="2045" fromLane="0" toLane="0" dir="s" state="M"/>
    <connection from=":8_0" to="3279" fromLane="0" toLane="0" dir="s" state="M"/>

</net>