<routes>
	<vehicle depart="0.1" departLane="0" departPos="4.490536616194181" departSpeed="0.83489712" id="36" type="bicycle">
		<route edges=":69_2 61483"/>
	</vehicle>
	<vehicle depart="0.1" departLane="0" departPos="12.513732182203249" departSpeed="0.81608175" id="34" type="passenger">
		<route edges=":69_3 61479"/>
	</vehicle>
	<vehicle depart="0.1" departLane="0" departPos="2.5" departSpeed="1.4473216" id="39" type="passenger">
		<route edges=":66_5 61447 61409"/>
	</vehicle>
	<vehicle depart="0.1" departLane="0" departPos="6.587898087705481" departSpeed="3.0170482" id="321" type="passenger">
		<route edges=":66_2 61447 61452"/>
	</vehicle>
	<vehicle depart="0.1" departLane="0" departPos="36.28967503013597" departSpeed="0.64740402" id="325" type="passenger">
		<route edges="61410 61448"/>
	</vehicle>
	<vehicle depart="0.1" departLane="0" departPos="24.647906858299045" departSpeed="8.6012203" id="351" type="passenger">
		<route edges=":65_5 61409 61385"/>
	</vehicle>
	<vehicle depart="0.1" departLane="0" departPos="15.88591856541578" departSpeed="14.066356" id="355" type="passenger">
		<route edges=":72_0 61432 61448 61480"/>
	</vehicle>
	<vehicle depart="0.1" departLane="0" departPos="7.150839938241669" departSpeed="6.7918877" id="346" type="motorcycle">
		<route edges="61409 61385"/>
	</vehicle>
	<vehicle depart="0.1" departLane="0" departPos="23.560927487172997" departSpeed="0.45979947" id="30" type="truck">
		<route edges=":66_4 61480"/>
	</vehicle>
	<vehicle depart="0.1" departLane="0" departPos="6.71622658402501" departSpeed="0.085176411" id="315" type="truck">
		<route edges=":65_1 61448"/>
	</vehicle>
</routes>
