<routes>
	<vehicle depart="0.1" departLane="0" departPos="39.861337972028814" departSpeed="1.406211" id="312" type="passenger">
		<route edges=":19_0 125293"/>
	</vehicle>
	<vehicle depart="0.1" departLane="0" departPos="14.762545968257923" departSpeed="9.0665436" id="315" type="passenger">
		<route edges=":19_1 126032 126035"/>
	</vehicle>
	<vehicle depart="0.1" departLane="0" departPos="17.242129847137534" departSpeed="8.346925" id="317" type="passenger">
		<route edges=":19_2 125293"/>
	</vehicle>
	<vehicle depart="0.1" departLane="0" departPos="21.504616136446185" departSpeed="5.4822223" id="322" type="passenger">
		<route edges="126091 125293"/>
	</vehicle>
	<vehicle depart="0.1" departLane="0" departPos="11.504633658764151" departSpeed="3.7240529" id="325" type="passenger">
		<route edges="126091 125293"/>
	</vehicle>
</routes>
