<routes>
	<vehicle depart="0.1" departLane="0" departPos="53.77843262691904" departSpeed="0.0" id="34" type="passenger">
		<route edges="14059 14167"/>
	</vehicle>
	<vehicle depart="0.1" departLane="0" departPos="2.5" departSpeed="0.93184587" id="38" type="passenger">
		<route edges=":69_6 14167"/>
	</vehicle>
	<vehicle depart="0.1" departLane="0" departPos="46.61484153423572" departSpeed="0.0" id="311" type="passenger">
		<route edges="14059 14167"/>
	</vehicle>
	<vehicle depart="0.1" departLane="0" departPos="14.92036705841742" departSpeed="12.613466" id="355" type="passenger">
		<route edges=":69_11 14058 14718"/>
	</vehicle>
	<vehicle depart="0.1" departLane="0" departPos="41.55630995080699" departSpeed="13.099668" id="358" type="passenger">
		<route edges="14164 14167"/>
	</vehicle>
	<vehicle depart="0.1" departLane="0" departPos="14.36335598166773" departSpeed="10.518678" id="362" type="passenger">
		<route edges="14164 14167"/>
	</vehicle>
	<vehicle depart="0.1" departLane="0" departPos="8.545646848523084" departSpeed="4.8393999" id="366" type="passenger">
		<route edges="14164 14167"/>
	</vehicle>
</routes>
