<routes>
	<vehicle depart="0.1" departLane="0" departPos="20.958412531615416" departSpeed="1.4610824e-05" id="38" type="bicycle">
		<route edges="38439 38383"/>
	</vehicle>
	<vehicle depart="0.1" departLane="0" departPos="8.219285529440018" departSpeed="0.68123103" id="33" type="passenger">
		<route edges=":51_0 38383"/>
	</vehicle>
	<vehicle depart="0.1" departLane="0" departPos="19.4579083971177" departSpeed="0.0" id="315" type="passenger">
		<route edges="38439 38383"/>
	</vehicle>
	<vehicle depart="0.1" departLane="0" departPos="40.233244894586186" departSpeed="0.0" id="319" type="passenger">
		<route edges="38413 38390"/>
	</vehicle>
	<vehicle depart="0.1" departLane="0" departPos="22.7048250225521" departSpeed="10.687357" id="337" type="passenger">
		<route edges=":54_5 38412 39698"/>
	</vehicle>
	<vehicle depart="0.1" departLane="0" departPos="4.9744622151837214" departSpeed="2.5543837" id="338" type="passenger">
		<route edges="38387 38412"/>
	</vehicle>
	<vehicle depart="0.1" departLane="0" departPos="21.1179681117103" departSpeed="10.309611" id="345" type="passenger">
		<route edges=":51_4 38440 37648"/>
	</vehicle>
	<vehicle depart="0.1" departLane="0" departPos="24.144384308987366" departSpeed="7.5170983" id="351" type="passenger">
		<route edges="38384 38440"/>
	</vehicle>
	<vehicle depart="0.1" departLane="0" departPos="29.45877655760129" departSpeed="0.0" id="321" type="truck">
		<route edges="38439 38383"/>
	</vehicle>
	<vehicle depart="0.1" departLane="0" departPos="6.8641750915415765" departSpeed="7.3816694" id="348" type="truck">
		<route edges=":51_4 38440"/>
	</vehicle>
</routes>
