<routes>
	<vehicle depart="0.1" departLane="0" departPos="37.925278254461574" departSpeed="2.8643776" id="331" type="bicycle">
		<route edges="5441 6014"/>
	</vehicle>
	<vehicle depart="0.1" departLane="0" departPos="18.60446653119177" departSpeed="0.15333434" id="34" type="passenger">
		<route edges=":69_2 6018"/>
	</vehicle>
	<vehicle depart="0.1" departLane="0" departPos="68.5031570399804" departSpeed="2.4575778" id="318" type="passenger">
		<route edges="5441 6018"/>
	</vehicle>
	<vehicle depart="0.1" departLane="0" departPos="31.294697333079483" departSpeed="0.0" id="319" type="passenger">
		<route edges="6015 5442"/>
	</vehicle>
	<vehicle depart="0.1" departLane="0" departPos="23.833005893046103" departSpeed="4.0723878e-05" id="324" type="passenger">
		<route edges="6015 5442"/>
	</vehicle>
	<vehicle depart="0.1" departLane="0" departPos="59.36405658223629" departSpeed="2.7860914" id="334" type="passenger">
		<route edges="5441 6014"/>
	</vehicle>
	<vehicle depart="0.1" departLane="0" departPos="29.851729411042307" departSpeed="2.5737194" id="342" type="passenger">
		<route edges="5441 6014"/>
	</vehicle>
	<vehicle depart="0.1" departLane="0" departPos="18.282524763026814" departSpeed="1.9470576" id="347" type="passenger">
		<route edges="5441 6014"/>
	</vehicle>
	<vehicle depart="0.1" departLane="0" departPos="13.154980827272539" departSpeed="7.2370973" id="323" type="motorcycle">
		<route edges=":69_1 5442"/>
	</vehicle>
	<vehicle depart="0.1" departLane="0" departPos="42.274366480769466" departSpeed="2.6663217" id="320" type="truck">
		<route edges="5441 6014"/>
	</vehicle>
</routes>
