<routes>
	<vehicle depart="0.1" departLane="0" departPos="33.85981126529377" departSpeed="6.5302937" id="37" type="bicycle">
		<route edges=":35_8 89596 89453"/>
	</vehicle>
	<vehicle depart="0.1" departLane="0" departPos="1.0" departSpeed="1.6119761" id="322" type="bicycle">
		<route edges=":35_4 89596"/>
	</vehicle>
	<vehicle depart="0.1" departLane="0" departPos="31.197924266170208" departSpeed="1.0983788" id="33" type="passenger">
		<route edges=":35_1 89749"/>
	</vehicle>
	<vehicle depart="0.1" departLane="0" departPos="18.87891644009064" departSpeed="1.9265293" id="38" type="passenger">
		<route edges=":35_8 89596"/>
	</vehicle>
	<vehicle depart="0.1" departLane="0" departPos="6.840664146999189" departSpeed="10.069027" id="39" type="passenger">
		<route edges=":33_3 89599"/>
	</vehicle>
	<vehicle depart="0.1" departLane="0" departPos="10.858794318387073" departSpeed="11.373916" id="318" type="passenger">
		<route edges="89596 89599"/>
	</vehicle>
	<vehicle depart="0.1" departLane="0" departPos="50.66230885972286" departSpeed="0.3831991" id="323" type="passenger">
		<route edges="89736 89596"/>
	</vehicle>
	<vehicle depart="0.1" departLane="0" departPos="10.2747048034142" departSpeed="4.7242039" id="333" type="passenger">
		<route edges=":35_5 89749"/>
	</vehicle>
</routes>
