<routes>
	<vehicle depart="0.1" departLane="0" departPos="41.635248990090275" departSpeed="0.58121575" id="310" type="bicycle">
		<route edges="71051 70939"/>
	</vehicle>
	<vehicle depart="0.1" departLane="0" departPos="6.740990350864403" departSpeed="2.3272844" id="315" type="passenger">
		<route edges=":78_0 70939"/>
	</vehicle>
	<vehicle depart="0.1" departLane="0" departPos="49.33106330445358" departSpeed="1.5817398" id="326" type="passenger">
		<route edges="71051 70939"/>
	</vehicle>
	<vehicle depart="0.1" departLane="0" departPos="36.69430912671087" departSpeed="0.0" id="333" type="passenger">
		<route edges="70936 70939"/>
	</vehicle>
	<vehicle depart="0.1" departLane="0" departPos="40.21593705612104" departSpeed="0.7199019" id="344" type="passenger">
		<route edges="71051 70939"/>
	</vehicle>
	<vehicle depart="0.1" departLane="0" departPos="29.192584511812903" departSpeed="0.0" id="351" type="passenger">
		<route edges="70936 70939"/>
	</vehicle>
	<vehicle depart="0.1" departLane="0" departPos="21.690819619555413" departSpeed="0.00012524833" id="353" type="passenger">
		<route edges="70936 70939"/>
	</vehicle>
	<vehicle depart="0.1" departLane="0" departPos="7.4931921315471754" departSpeed="0.80671814" id="354" type="passenger">
		<route edges="71051 70939"/>
	</vehicle>
	<vehicle depart="0.1" departLane="0" departPos="24.112695121393926" departSpeed="0.47205301" id="360" type="passenger">
		<route edges="71051 70939"/>
	</vehicle>
</routes>
