<routes>
	<vehicle depart="0.1" departLane="0" departPos="3.6855549620725223" departSpeed="0.54390455" id="310" type="bicycle">
		<route edges=":35_1 86845"/>
	</vehicle>
	<vehicle depart="0.1" departLane="0" departPos="69.90516834379045" departSpeed="0.0" id="312" type="passenger">
		<route edges="86840 86843"/>
	</vehicle>
	<vehicle depart="0.1" departLane="0" departPos="62.40401208284424" departSpeed="0.0" id="313" type="passenger">
		<route edges="86840 86843"/>
	</vehicle>
	<vehicle depart="0.1" departLane="0" departPos="20.09965414707353" departSpeed="5.7279657" id="322" type="passenger">
		<route edges=":33_0 86843 86872"/>
	</vehicle>
	<vehicle depart="0.1" departLane="0" departPos="8.754635334489105" departSpeed="6.7682806" id="323" type="passenger">
		<route edges=":34_2 86572 86849"/>
	</vehicle>
	<vehicle depart="0.1" departLane="0" departPos="7.017429450552797" departSpeed="8.1880482" id="331" type="passenger">
		<route edges=":33_5 86566"/>
	</vehicle>
	<vehicle depart="0.1" departLane="0" departPos="16.64610177099884" departSpeed="15.888358" id="332" type="passenger">
		<route edges=":34_0 86869"/>
	</vehicle>
	<vehicle depart="0.1" departLane="0" departPos="17.38158608385563" departSpeed="1.534569" id="334" type="passenger">
		<route edges=":36_5 86842 86566"/>
	</vehicle>
	<vehicle depart="0.1" departLane="0" departPos="17.77009767117452" departSpeed="5.5458073" id="336" type="passenger">
		<route edges=":34_4 86873 86842"/>
	</vehicle>
	<vehicle depart="0.1" departLane="0" departPos="61.929446810605796" departSpeed="1.6973212" id="337" type="passenger">
		<route edges="86870 86873"/>
	</vehicle>
</routes>
