<!-- generated on Tue Feb  9 22:06:56 2021 by Eclipse SUMO netconvert Version 1.8.0
<configuration xmlns:xsi="http://www.w3.org/2001/XMLSchema-instance" xsi:noNamespaceSchemaLocation="http://sumo.dlr.de/xsd/netconvertConfiguration.xsd">

    <input>
        <node-files value="./converted_scenarios/scenario-factory/ESP_Cambre-1_1_I-1-1/ESP_Cambre-1_1_I-1-1.nod.xml"/>
        <edge-files value="./converted_scenarios/scenario-factory/ESP_Cambre-1_1_I-1-1/ESP_Cambre-1_1_I-1-1.edg.xml"/>
        <connection-files value="./converted_scenarios/scenario-factory/ESP_Cambre-1_1_I-1-1/ESP_Cambre-1_1_I-1-1.con.xml"/>
        <tllogic-files value="./converted_scenarios/scenario-factory/ESP_Cambre-1_1_I-1-1/ESP_Cambre-1_1_I-1-1.tll.xml"/>
        <type-files value="/home/zen/commonroad-interactive-benchmarks/install/commonroad-map-tool/crmapconverter/sumo_map/templates/DEU.typ.xml"/>
    </input>

    <output>
        <output-file value="./converted_scenarios/scenario-factory/ESP_Cambre-1_1_I-1-1/ESP_Cambre-1_1_I-1-1.net.xml"/>
    </output>

    <processing>
        <geometry.remove.keep-edges.explicit value="true"/>
        <geometry.avoid-overlap value="true"/>
        <offset.disable-normalization value="true"/>
    </processing>

    <junctions>
        <no-turnarounds value="true"/>
        <junctions.internal-link-detail value="20"/>
    </junctions>

    <report>
        <aggregate-warnings value="5"/>
    </report>

    <random_number>
        <seed value="1234"/>
    </random_number>

</configuration>
--><net xmlns:xsi="http://www.w3.org/2001/XMLSchema-instance" version="1.6" junctionCornerDetail="5" junctionLinkDetail="20" limitTurnSpeed="5.50" xsi:noNamespaceSchemaLocation="http://sumo.dlr.de/xsd/net_file.xsd">

    <location netOffset="0.00,0.00" convBoundary="-345.10,-27.37,-186.92,179.38" origBoundary="-345.10,-27.37,-186.92,179.38" projParameter="!"/>

    <type id="highway.bridleway" priority="1" speed="2.78" allow="pedestrian" oneway="1" width="2.00"/>
    <type id="highway.bus_guideway" priority="1" speed="27.78" allow="bus" oneway="1"/>
    <type id="highway.cycleway" priority="1" speed="8.33" allow="bicycle" oneway="0" width="1.00"/>
    <type id="highway.footway" priority="1" speed="2.78" allow="pedestrian" oneway="1" width="2.00"/>
    <type id="highway.ford" priority="1" speed="2.78" allow="army" oneway="0"/>
    <type id="highway.living_street" priority="2" speed="2.78" disallow="tram rail_urban rail rail_electric rail_fast ship" oneway="0"/>
    <type id="highway.motorway" priority="14" speed="39.44" allow="private emergency authority army vip passenger hov taxi bus coach delivery truck trailer motorcycle evehicle custom1 custom2" oneway="1"/>
    <type id="highway.motorway_link" priority="9" speed="22.22" allow="private emergency authority army vip passenger hov taxi bus coach delivery truck trailer motorcycle evehicle custom1 custom2" oneway="1"/>
    <type id="highway.path" priority="1" speed="2.78" allow="pedestrian bicycle" oneway="0" width="2.00"/>
    <type id="highway.pedestrian" priority="1" speed="2.78" allow="pedestrian" oneway="1" width="2.00"/>
    <type id="highway.primary" priority="12" speed="27.78" disallow="pedestrian tram rail_urban rail rail_electric rail_fast ship" oneway="0"/>
    <type id="highway.primary_link" priority="7" speed="22.22" disallow="pedestrian tram rail_urban rail rail_electric rail_fast ship" oneway="0"/>
    <type id="highway.raceway" priority="15" speed="83.33" allow="vip" oneway="0"/>
    <type id="highway.residential" priority="3" speed="13.89" disallow="pedestrian tram rail_urban rail rail_electric rail_fast ship" oneway="0"/>
    <type id="highway.secondary" priority="11" speed="27.78" disallow="pedestrian tram rail_urban rail rail_electric rail_fast ship" oneway="0"/>
    <type id="highway.secondary_link" priority="6" speed="22.22" disallow="pedestrian tram rail_urban rail rail_electric rail_fast ship" oneway="0"/>
    <type id="highway.service" priority="1" speed="5.56" allow="pedestrian delivery bicycle" oneway="0"/>
    <type id="highway.stairs" priority="1" speed="1.39" allow="pedestrian" oneway="1" width="2.00"/>
    <type id="highway.step" priority="1" speed="1.39" allow="pedestrian" oneway="1" width="2.00"/>
    <type id="highway.steps" priority="1" speed="1.39" allow="pedestrian" oneway="1" width="2.00"/>
    <type id="highway.tertiary" priority="10" speed="22.22" disallow="pedestrian tram rail_urban rail rail_electric rail_fast ship" oneway="0"/>
    <type id="highway.tertiary_link" priority="5" speed="22.22" disallow="pedestrian tram rail_urban rail rail_electric rail_fast ship" oneway="0"/>
    <type id="highway.track" priority="1" speed="5.56" allow="pedestrian motorcycle moped bicycle" oneway="0"/>
    <type id="highway.trunk" priority="13" speed="27.78" disallow="pedestrian bicycle tram rail_urban rail rail_electric rail_fast ship" oneway="0"/>
    <type id="highway.trunk_link" priority="8" speed="22.22" disallow="pedestrian bicycle tram rail_urban rail rail_electric rail_fast ship" oneway="0"/>
    <type id="highway.unclassified" priority="4" speed="13.89" disallow="pedestrian tram rail_urban rail rail_electric rail_fast ship" oneway="0"/>
    <type id="highway.unsurfaced" priority="1" speed="8.33" disallow="tram rail_urban rail rail_electric rail_fast ship" oneway="0"/>
    <type id="railway.highspeed" priority="21" speed="69.44" allow="rail_fast" oneway="1"/>
    <type id="railway.light_rail" priority="19" speed="27.78" allow="rail_urban" oneway="1"/>
    <type id="railway.preserved" priority="16" speed="27.78" allow="rail" oneway="1"/>
    <type id="railway.rail" priority="20" speed="44.44" allow="rail" oneway="1"/>
    <type id="railway.subway" priority="18" speed="27.78" allow="rail_urban" oneway="1"/>
    <type id="railway.tram" priority="17" speed="13.89" allow="tram" oneway="1"/>

    <edge id=":33_0" function="internal">
        <lane id=":33_0_0" index="0" disallow="pedestrian tram rail_urban rail rail_electric rail_fast ship" speed="36.11" length="31.93" width="3.50" shape="-242.06,62.54 -246.21,63.38 -256.41,65.63 -263.44,67.46 -268.33,69.00 -271.09,70.11 -272.74,71.03"/>
    </edge>
    <edge id=":33_1" function="internal">
        <lane id=":33_1_0" index="0" disallow="pedestrian tram rail_urban rail rail_electric rail_fast ship" speed="11.35" length="38.63" width="3.50" shape="-242.06,62.54 -243.52,62.81 -246.32,63.17 -249.20,63.31 -252.09,63.12 -253.60,62.85 -255.07,62.44 -256.52,61.87 -257.90,61.10 -259.18,60.14 -260.32,59.01 -261.27,57.73 -262.03,56.35 -262.61,54.92 -263.04,53.46 -263.32,51.99 -263.50,50.51 -263.59,47.64 -263.41,44.79 -262.80,40.64"/>
    </edge>
    <edge id=":33_2" function="internal">
        <lane id=":33_2_0" index="0" disallow="pedestrian tram rail_urban rail rail_electric rail_fast ship" speed="10.27" length="31.42" width="3.50" shape="-259.36,41.28 -259.89,44.87 -260.04,47.28 -259.98,49.70 -259.84,50.90 -259.61,52.09 -259.28,53.25 -258.83,54.37 -258.26,55.44 -257.55,56.41 -256.70,57.27 -255.74,58.01 -254.69,58.60 -253.57,59.05 -252.40,59.38 -251.22,59.59 -248.80,59.76 -246.39,59.65 -243.99,59.33 -242.81,59.12"/>
    </edge>
    <edge id=":33_3" function="internal">
        <lane id=":33_3_0" index="0" disallow="pedestrian tram rail_urban rail rail_electric rail_fast ship" speed="19.09" length="33.33" width="3.50" shape="-259.36,41.28 -260.75,47.79 -262.20,53.14 -263.62,57.34 -265.34,61.43 -266.89,64.38 -268.73,67.14 -270.17,68.83 -271.80,70.33 -272.74,71.03"/>
    </edge>
    <edge id=":33_4" function="internal">
        <lane id=":33_4_0" index="0" disallow="pedestrian tram rail_urban rail rail_electric rail_fast ship" speed="18.07" length="30.62" width="3.50" shape="-274.75,68.16 -273.95,67.58 -272.55,66.26 -271.32,64.79 -269.69,62.27 -268.31,59.58 -266.75,55.77 -265.45,51.83 -264.11,46.79 -262.80,40.64"/>
    </edge>
    <edge id=":33_5" function="internal">
        <lane id=":33_5_0" index="0" disallow="pedestrian tram rail_urban rail rail_electric rail_fast ship" speed="36.11" length="33.31" width="3.50" shape="-274.75,68.16 -272.79,67.06 -269.81,65.83 -264.72,64.19 -257.46,62.29 -247.00,59.97 -242.81,59.12"/>
    </edge>
    <edge id=":34_0" function="internal">
        <lane id=":34_0_0" index="0" disallow="pedestrian tram rail_urban rail rail_electric rail_fast ship" speed="18.54" length="25.54" width="3.50" shape="-305.43,80.49 -306.17,77.55 -307.23,74.72 -308.58,72.00 -310.20,69.41 -312.05,66.97 -314.09,64.66 -316.30,62.50 -319.48,59.81"/>
    </edge>
    <edge id=":34_1" function="internal">
        <lane id=":34_1_0" index="0" disallow="pedestrian tram rail_urban rail rail_electric rail_fast ship" speed="8.03" length="20.82" width="3.50" shape="-305.43,80.49 -305.73,78.67 -305.90,76.81 -305.85,74.84 -305.37,72.72 -304.05,70.69 -301.88,69.48 -299.61,69.28 -297.59,69.62 -295.78,70.20 -294.09,70.90"/>
    </edge>
    <edge id=":34_2" function="internal">
        <lane id=":34_2_0" index="0" disallow="pedestrian tram rail_urban rail rail_electric rail_fast ship" speed="6.36" length="12.54" width="3.50" shape="-295.54,74.09 -296.69,73.60 -297.89,73.22 -299.13,73.01 -300.38,73.11 -301.45,73.73 -302.07,74.82 -302.31,76.05 -302.32,77.31 -302.20,78.56 -302.00,79.80"/>
    </edge>
    <edge id=":34_3" function="internal">
        <lane id=":34_3_0" index="0" disallow="pedestrian tram rail_urban rail rail_electric rail_fast ship" speed="36.11" length="27.94" width="3.50" shape="-295.54,74.09 -297.49,73.17 -304.16,69.78 -309.74,66.56 -315.14,63.03 -319.48,59.81"/>
    </edge>
    <edge id=":34_4" function="internal">
        <lane id=":34_4_0" index="0" disallow="pedestrian tram rail_urban rail rail_electric rail_fast ship" speed="36.11" length="26.94" width="3.50" shape="-317.19,57.15 -313.12,60.17 -307.88,63.59 -302.46,66.71 -295.96,70.02 -294.09,70.90"/>
    </edge>
    <edge id=":34_5" function="internal">
        <lane id=":34_5_0" index="0" disallow="pedestrian tram rail_urban rail rail_electric rail_fast ship" speed="19.64" length="27.86" width="3.50" shape="-317.20,57.16 -313.89,59.96 -311.49,62.32 -309.27,64.84 -307.25,67.52 -305.48,70.38 -303.99,73.39 -302.82,76.54 -302.00,79.80"/>
    </edge>
    <edge id=":35_0" function="internal">
        <lane id=":35_0_0" index="0" disallow="pedestrian tram rail_urban rail rail_electric rail_fast ship" speed="36.11" length="29.59" width="3.50" shape="-301.25,109.99 -301.36,107.01 -301.96,100.94 -303.16,92.86 -305.38,80.72"/>
    </edge>
    <edge id=":35_1" function="internal">
        <lane id=":35_1_0" index="0" disallow="pedestrian tram rail_urban rail rail_electric rail_fast ship" speed="18.82" length="29.04" width="3.50" shape="-301.25,109.99 -301.21,107.76 -300.96,104.44 -300.47,101.14 -299.72,97.87 -298.69,94.67 -297.37,91.57 -295.78,88.60 -293.92,85.79 -291.85,83.20"/>
    </edge>
    <edge id=":35_2" function="internal">
        <lane id=":35_2_0" index="0" disallow="pedestrian tram rail_urban rail rail_electric rail_fast ship" speed="17.91" length="26.54" width="3.50" shape="-289.19,85.47 -291.10,87.86 -292.79,90.42 -294.23,93.12 -295.42,95.94 -296.36,98.86 -297.04,101.85 -297.49,104.88 -297.71,107.93 -297.75,109.97"/>
    </edge>
    <edge id=":35_3" function="internal">
        <lane id=":35_3_0" index="0" disallow="pedestrian tram rail_urban rail rail_electric rail_fast ship" speed="36.11" length="30.25" width="3.50" shape="-301.95,80.05 -299.69,92.37 -298.48,100.62 -297.86,106.85 -297.75,109.97"/>
    </edge>
    <edge id=":36_0" function="internal">
        <lane id=":36_0_0" index="0" disallow="pedestrian tram rail_urban rail rail_electric rail_fast ship" speed="36.11" length="21.53" width="3.50" shape="-272.87,71.12 -273.73,71.70 -277.87,74.76 -281.81,78.04 -285.53,81.54 -289.02,85.27"/>
    </edge>
    <edge id=":36_1" function="internal">
        <lane id=":36_1_0" index="0" disallow="pedestrian tram rail_urban rail rail_electric rail_fast ship" speed="13.12" length="23.76" width="3.50" shape="-272.87,71.12 -275.94,72.99 -279.16,74.50 -281.41,75.26 -283.72,75.78 -286.08,76.04 -288.45,76.01 -290.80,75.68 -293.09,75.07 -295.30,74.19"/>
    </edge>
    <edge id=":36_2" function="internal">
        <lane id=":36_2_0" index="0" disallow="pedestrian tram rail_urban rail rail_electric rail_fast ship" speed="12.14" length="20.18" width="3.50" shape="-293.86,71.01 -291.99,71.75 -290.07,72.25 -288.12,72.52 -286.14,72.53 -284.17,72.30 -282.22,71.84 -280.32,71.19 -277.51,69.87 -274.84,68.22"/>
    </edge>
    <edge id=":36_3" function="internal">
        <lane id=":36_3_0" index="0" disallow="pedestrian tram rail_urban rail rail_electric rail_fast ship" speed="8.30" length="18.38" width="3.50" shape="-293.86,71.01 -292.51,71.67 -291.20,72.42 -289.93,73.30 -288.71,74.36 -287.62,75.67 -286.81,77.27 -286.45,79.09 -286.62,80.92 -287.20,82.58 -288.04,84.01 -289.02,85.27"/>
    </edge>
    <edge id=":36_4" function="internal">
        <lane id=":36_4_0" index="0" disallow="pedestrian tram rail_urban rail rail_electric rail_fast ship" speed="6.72" length="11.71" width="3.50" shape="-291.67,82.99 -291.01,82.13 -290.48,81.21 -290.16,80.20 -290.13,79.14 -290.42,78.12 -290.97,77.22 -291.70,76.44 -292.53,75.77 -293.42,75.18 -294.35,74.66 -295.30,74.19"/>
    </edge>
    <edge id=":36_5" function="internal">
        <lane id=":36_5_0" index="0" disallow="pedestrian tram rail_urban rail rail_electric rail_fast ship" speed="36.11" length="22.45" width="3.50" shape="-291.67,82.99 -288.02,79.08 -284.14,75.42 -280.04,72.01 -275.74,68.84 -274.84,68.22"/>
    </edge>

    <edge id="86565" from="32" to="33" priority="3" type="highway.residential" spreadType="center" length="57.76" shape="-186.92,47.19 -258.85,58.86">
        <lane id="86565_0" index="0" disallow="pedestrian tram rail_urban rail rail_electric rail_fast ship" speed="36.11" length="57.76" width="3.50" customShape="1" shape="-186.92,47.19 -189.20,48.34 -191.08,49.15 -192.56,49.56 -195.09,49.92 -200.20,49.98 -202.75,50.14 -205.24,50.68 -208.63,51.83 -214.71,54.51 -219.42,56.49 -226.24,58.65 -234.14,60.79 -242.13,62.55"/>
    </edge>
    <edge id="86566" from="33" to="19" priority="3" type="highway.residential" spreadType="center" length="56.83" shape="-259.41,55.40 -188.48,44.05">
        <lane id="86566_0" index="0" disallow="pedestrian tram rail_urban rail rail_electric rail_fast ship" speed="36.11" length="56.83" width="3.50" customShape="1" shape="-242.81,59.12 -234.96,57.38 -227.20,55.28 -220.55,53.17 -215.96,51.23 -209.87,48.56 -206.36,47.36 -203.69,46.75 -200.94,46.50 -195.89,46.45 -193.60,46.20 -192.39,45.89 -190.69,45.17 -188.48,44.05"/>
    </edge>
    <edge id="86571" from="35" to="34" priority="3" type="highway.residential" spreadType="center" length="0.26" shape="-299.49,92.29 -307.28,70.96">
        <lane id="86571_0" index="0" disallow="pedestrian tram rail_urban rail rail_electric rail_fast ship" speed="36.11" length="0.26" width="3.50" customShape="1" shape="-305.38,80.73 -305.41,80.61 -305.43,80.48"/>
    </edge>
    <edge id="86572" from="34" to="35" priority="3" type="highway.residential" spreadType="center" length="0.26" shape="-303.99,69.76 -296.21,91.10">
        <lane id="86572_0" index="0" disallow="pedestrian tram rail_urban rail rail_electric rail_fast ship" speed="36.11" length="0.26" width="3.50" customShape="1" shape="-302.00,79.80 -301.97,79.93 -301.95,80.06"/>
    </edge>
    <edge id="86839" from="33" to="22" priority="3" type="highway.residential" spreadType="center" length="69.99" shape="-260.82,56.86 -246.44,-27.37">
        <lane id="86839_0" index="0" disallow="pedestrian tram rail_urban rail rail_electric rail_fast ship" speed="36.11" length="69.99" width="3.50" customShape="1" shape="-262.80,40.64 -262.61,39.64 -260.72,30.73 -256.38,14.07 -249.92,-9.87 -247.96,-18.25 -246.68,-25.22 -246.44,-27.37"/>
    </edge>
    <edge id="86840" from="30" to="33" priority="3" type="highway.residential" spreadType="center" length="70.01" shape="-242.99,-26.73 -257.37,57.45">
        <lane id="86840_0" index="0" disallow="pedestrian tram rail_urban rail rail_electric rail_fast ship" speed="36.11" length="70.01" width="3.50" customShape="1" shape="-242.99,-26.73 -243.25,-24.47 -244.56,-17.42 -246.53,-9.00 -252.98,14.91 -257.30,31.48 -259.17,40.31 -259.36,41.29"/>
    </edge>
    <edge id="86842" from="36" to="33" priority="3" type="highway.residential" spreadType="center" length="0.19" shape="-287.31,74.07 -260.07,55.67">
        <lane id="86842_0" index="0" disallow="pedestrian tram rail_urban rail rail_electric rail_fast ship" speed="36.11" length="0.19" width="3.50" customShape="1" shape="-274.84,68.22 -274.68,68.12"/>
    </edge>
    <edge id="86843" from="33" to="36" priority="3" type="highway.residential" spreadType="center" length="0.18" shape="-258.11,58.57 -285.36,76.97">
        <lane id="86843_0" index="0" disallow="pedestrian tram rail_urban rail rail_electric rail_fast ship" speed="36.11" length="0.18" width="3.50" customShape="1" shape="-272.74,71.03 -272.89,71.13"/>
    </edge>
    <edge id="86845" from="35" to="36" priority="3" type="highway.residential" spreadType="center" length="0.30" shape="-299.31,90.54 -287.58,74.32">
        <lane id="86845_0" index="0" disallow="pedestrian tram rail_urban rail rail_electric rail_fast ship" speed="36.11" length="0.30" width="3.50" customShape="1" shape="-291.85,83.20 -291.74,83.07 -291.66,82.97"/>
    </edge>
    <edge id="86846" from="36" to="35" priority="3" type="highway.residential" spreadType="center" length="0.28" shape="-284.76,76.36 -296.48,92.59">
        <lane id="86846_0" index="0" disallow="pedestrian tram rail_urban rail rail_electric rail_fast ship" speed="36.11" length="0.28" width="3.50" customShape="1" shape="-289.02,85.27 -289.11,85.37 -289.20,85.49"/>
    </edge>
    <edge id="86848" from="31" to="35" priority="3" type="highway.residential" spreadType="center" length="70.00" shape="-293.33,179.38 -299.64,91.66">
        <lane id="86848_0" index="0" disallow="pedestrian tram rail_urban rail rail_electric rail_fast ship" speed="36.11" length="70.00" width="3.50" customShape="1" shape="-293.33,179.38 -293.94,176.67 -296.35,164.26 -298.31,152.29 -299.72,141.26 -300.80,129.68 -301.17,122.62 -301.25,109.99"/>
    </edge>
    <edge id="86849" from="35" to="27" priority="3" type="highway.residential" spreadType="center" length="70.00" shape="-296.15,91.41 -289.75,179.35">
        <lane id="86849_0" index="0" disallow="pedestrian tram rail_urban rail rail_electric rail_fast ship" speed="36.11" length="70.00" width="3.50" customShape="1" shape="-297.75,109.97 -297.68,122.54 -297.30,129.53 -296.23,141.02 -294.82,151.98 -292.87,163.88 -290.46,176.21 -289.75,179.35"/>
    </edge>
    <edge id="86869" from="34" to="14" priority="3" type="highway.residential" spreadType="center" length="69.99" shape="-307.18,71.18 -345.10,-3.98">
        <lane id="86869_0" index="0" disallow="pedestrian tram rail_urban rail rail_electric rail_fast ship" speed="36.11" length="69.99" width="3.50" customShape="1" shape="-319.48,59.81 -321.40,58.16 -323.12,56.29 -324.32,54.65 -325.10,53.34 -325.90,51.47 -326.52,49.01 -326.86,45.98 -327.04,41.91 -327.31,38.88 -328.28,34.40 -329.59,29.49 -331.12,25.18 -334.94,15.75 -338.30,8.34 -341.57,2.02 -344.91,-3.69 -345.10,-3.98"/>
    </edge>
    <edge id="86870" from="29" to="34" priority="3" type="highway.residential" spreadType="center" length="70.12" shape="-342.80,-6.84 -304.06,69.60">
        <lane id="86870_0" index="0" disallow="pedestrian tram rail_urban rail rail_electric rail_fast ship" speed="36.11" length="70.12" width="3.50" customShape="1" shape="-342.80,-6.84 -342.11,-5.80 -338.72,-0.05 -335.40,6.31 -331.99,13.75 -328.14,23.18 -326.54,27.56 -325.13,32.54 -324.11,37.07 -323.66,40.28 -323.43,44.39 -323.20,47.29 -322.78,49.54 -322.22,51.19 -321.65,52.32 -320.63,53.81 -319.08,55.53 -317.20,57.16"/>
    </edge>
    <edge id="86872" from="36" to="34" priority="3" type="highway.residential" spreadType="center" length="0.26" shape="-286.56,77.19 -306.08,72.05">
        <lane id="86872_0" index="0" disallow="pedestrian tram rail_urban rail rail_electric rail_fast ship" speed="36.11" length="0.26" width="3.50" customShape="1" shape="-295.30,74.19 -295.42,74.14 -295.54,74.08"/>
    </edge>
    <edge id="86873" from="34" to="36" priority="3" type="highway.residential" spreadType="center" length="0.28" shape="-305.19,68.67 -285.67,73.82">
        <lane id="86873_0" index="0" disallow="pedestrian tram rail_urban rail rail_electric rail_fast ship" speed="36.11" length="0.28" width="3.50" customShape="1" shape="-294.09,70.90 -293.95,70.96 -293.84,71.02"/>
    </edge>

    <junction id="14" type="dead_end" x="-345.10" y="-3.98" incLanes="86869_0" intLanes="" shape="-346.57,-3.02 -343.64,-4.94" rightOfWay="edgePriority"/>
    <junction id="19" type="dead_end" x="-188.48" y="44.05" incLanes="86566_0" intLanes="" shape="-189.27,42.49 -187.68,45.61" rightOfWay="edgePriority"/>
    <junction id="22" type="dead_end" x="-246.44" y="-27.37" incLanes="86839_0" intLanes="" shape="-248.18,-27.57 -244.70,-27.18" rightOfWay="edgePriority"/>
    <junction id="27" type="dead_end" x="-289.75" y="179.35" incLanes="86849_0" intLanes="" shape="-288.04,178.97 -291.46,179.73" rightOfWay="edgePriority"/>
    <junction id="29" type="dead_end" x="-342.80" y="-6.84" incLanes="" intLanes="" shape="-344.25,-5.87 -341.34,-7.81" rightOfWay="edgePriority"/>
    <junction id="30" type="dead_end" x="-242.99" y="-26.73" incLanes="" intLanes="" shape="-244.73,-26.93 -241.25,-26.53" rightOfWay="edgePriority"/>
    <junction id="31" type="dead_end" x="-293.33" y="179.38" incLanes="" intLanes="" shape="-291.62,179.00 -295.03,179.76" rightOfWay="edgePriority"/>
    <junction id="32" type="dead_end" x="-186.92" y="47.19" incLanes="" intLanes="" shape="-187.71,45.63 -186.13,48.75" rightOfWay="edgePriority"/>
    <junction id="33" type="priority" x="-259.09" y="57.12" incLanes="86565_0 86840_0 86842_0" intLanes=":33_0_0 :33_1_0 :33_2_0 :33_3_0 :33_4_0 :33_5_0" shape="-241.68,64.25 -243.19,57.41 -248.45,57.94 -252.59,57.05 -255.60,54.86 -257.46,51.48 -258.15,47.02 -257.64,41.62 -264.52,40.32 -275.75,66.73 -271.74,72.46 -266.14,68.98 -261.66,67.10 -257.63,66.26 -253.40,65.88 -248.30,65.40">
        <request index="0" response="000000" foes="001000" cont="0"/>
        <request index="1" response="110000" foes="111000" cont="0"/>
        <request index="2" response="100000" foes="100000" cont="0"/>
        <request index="3" response="100011" foes="100011" cont="0"/>
        <request index="4" response="000000" foes="000010" cont="0"/>
        <request index="5" response="000000" foes="001110" cont="0"/>
    </junction>
    <junction id="34" type="priority" x="-305.64" y="70.36" incLanes="86571_0 86872_0 86870_0" intLanes=":34_0_0 :34_1_0 :34_2_0 :34_3_0 :34_4_0 :34_5_0" shape="-307.15,80.81 -300.28,79.46 -300.38,76.29 -299.89,75.42 -299.04,75.03 -297.83,75.11 -296.27,75.67 -293.36,69.31 -298.52,67.00 -302.36,65.29 -305.46,63.75 -308.40,61.94 -311.74,59.45 -316.06,55.83 -320.62,61.14 -316.63,64.48 -313.59,67.09 -311.31,69.50 -309.60,72.23 -308.28,75.83">
        <request index="0" response="000000" foes="001000" cont="0"/>
        <request index="1" response="110000" foes="111000" cont="0"/>
        <request index="2" response="100000" foes="100000" cont="0"/>
        <request index="3" response="100011" foes="100011" cont="0"/>
        <request index="4" response="000000" foes="000010" cont="0"/>
        <request index="5" response="000000" foes="001110" cont="0"/>
    </junction>
    <junction id="35" type="priority" x="-297.90" y="91.57" incLanes="86848_0 86846_0 86572_0" intLanes=":35_0_0 :35_1_0 :35_2_0 :35_3_0" shape="-303.00,110.00 -296.00,109.96 -295.99,104.59 -295.73,100.49 -295.01,97.15 -293.61,94.07 -291.31,90.73 -287.88,86.63 -293.17,82.05 -294.86,83.71 -296.35,84.55 -297.62,84.57 -298.70,83.77 -299.57,82.15 -300.23,79.71 -307.10,81.06 -305.82,87.17 -304.80,91.69 -304.02,95.43 -303.47,99.19 -303.14,103.78">
        <request index="0" response="0000" foes="0000" cont="0"/>
        <request index="1" response="1000" foes="1000" cont="0"/>
        <request index="2" response="1000" foes="1000" cont="0"/>
        <request index="3" response="0000" foes="0110" cont="0"/>
    </junction>
    <junction id="36" type="priority" x="-286.26" y="75.47" incLanes="86843_0 86873_0 86845_0" intLanes=":36_0_0 :36_1_0 :36_2_0 :36_3_0 :36_4_0 :36_5_0" shape="-271.88,72.56 -275.82,66.78 -278.91,68.63 -281.91,69.91 -284.83,70.63 -287.67,70.79 -290.43,70.39 -293.11,69.43 -296.03,75.78 -293.06,77.67 -292.31,78.66 -292.05,79.69 -292.28,80.75 -293.00,81.85 -287.69,86.41 -284.74,83.03 -282.46,80.61 -280.45,78.76 -278.29,77.06 -275.57,75.13">
        <request index="0" response="000000" foes="001000" cont="0"/>
        <request index="1" response="110000" foes="111000" cont="0"/>
        <request index="2" response="100000" foes="100000" cont="0"/>
        <request index="3" response="100011" foes="100011" cont="0"/>
        <request index="4" response="000000" foes="000010" cont="0"/>
        <request index="5" response="000000" foes="001110" cont="0"/>
    </junction>

    <connection from="86565" to="86843" fromLane="0" toLane="0" contPos="-4.00" shape="-242.13,62.55 -246.21,63.38 -256.41,65.63 -263.44,67.46 -268.33,69.00 -271.09,70.11 -272.74,71.03" via=":33_0_0" dir="s" state="M"/>
    <connection from="86565" to="86839" fromLane="0" toLane="0" contPos="-4.00" shape="-242.13,62.55 -243.52,62.81 -246.32,63.17 -249.20,63.31 -252.09,63.12 -253.60,62.85 -255.07,62.44 -256.52,61.87 -257.90,61.10 -259.18,60.14 -260.32,59.01 -261.27,57.73 -262.03,56.35 -262.61,54.92 -263.04,53.46 -263.32,51.99 -263.50,50.51 -263.59,47.64 -263.41,44.79 -262.80,40.64" via=":33_1_0" dir="l" state="m"/>
    <connection from="86571" to="86869" fromLane="0" toLane="0" contPos="-4.00" shape="-305.43,80.49 -306.17,77.55 -307.23,74.72 -308.58,72.00 -310.20,69.41 -312.05,66.97 -314.09,64.66 -316.30,62.50 -319.48,59.81" via=":34_0_0" dir="s" state="M"/>
    <connection from="86571" to="86873" fromLane="0" toLane="0" contPos="-4.00" shape="-305.43,80.49 -305.73,78.67 -305.90,76.81 -305.85,74.84 -305.37,72.72 -304.05,70.69 -301.88,69.48 -299.61,69.28 -297.59,69.62 -295.78,70.20 -294.09,70.90" via=":34_1_0" dir="l" state="m"/>
    <connection from="86572" to="86849" fromLane="0" toLane="0" contPos="-4.00" shape="-301.95,80.06 -299.69,92.37 -298.48,100.62 -297.86,106.85 -297.75,109.97" via=":35_3_0" dir="s" state="M"/>
    <connection from="86840" to="86566" fromLane="0" toLane="0" contPos="-4.00" shape="-259.36,41.28 -259.89,44.87 -260.04,47.28 -259.98,49.70 -259.84,50.90 -259.61,52.09 -259.28,53.25 -258.83,54.37 -258.26,55.44 -257.55,56.41 -256.70,57.27 -255.74,58.01 -254.69,58.60 -253.57,59.05 -252.40,59.38 -251.22,59.59 -248.80,59.76 -246.39,59.65 -243.99,59.33 -242.81,59.12" via=":33_2_0" dir="r" state="m"/>
    <connection from="86840" to="86843" fromLane="0" toLane="0" contPos="-4.00" shape="-259.36,41.28 -260.75,47.79 -262.20,53.14 -263.62,57.34 -265.34,61.43 -266.89,64.38 -268.73,67.14 -270.17,68.83 -271.80,70.33 -272.74,71.03" via=":33_3_0" dir="l" state="m"/>
    <connection from="86842" to="86839" fromLane="0" toLane="0" contPos="-4.00" shape="-274.68,68.12 -273.95,67.58 -272.55,66.26 -271.32,64.79 -269.69,62.27 -268.31,59.58 -266.75,55.77 -265.45,51.83 -264.11,46.79 -262.80,40.64" via=":33_4_0" dir="r" state="M"/>
    <connection from="86842" to="86566" fromLane="0" toLane="0" contPos="-4.00" shape="-274.68,68.12 -272.79,67.06 -269.81,65.83 -264.72,64.19 -257.46,62.29 -247.00,59.97 -242.81,59.12" via=":33_5_0" dir="s" state="M"/>
    <connection from="86843" to="86846" fromLane="0" toLane="0" contPos="-4.00" shape="-272.89,71.13 -273.73,71.70 -277.87,74.76 -281.81,78.04 -285.53,81.54 -289.02,85.27" via=":36_0_0" dir="s" state="M"/>
    <connection from="86843" to="86872" fromLane="0" toLane="0" contPos="-4.00" shape="-272.89,71.13 -275.94,72.99 -279.16,74.50 -281.41,75.26 -283.72,75.78 -286.08,76.04 -288.45,76.01 -290.80,75.68 -293.09,75.07 -295.30,74.19" via=":36_1_0" dir="l" state="m"/>
    <connection from="86845" to="86872" fromLane="0" toLane="0" contPos="-4.00" shape="-291.66,82.97 -291.01,82.13 -290.48,81.21 -290.16,80.20 -290.13,79.14 -290.42,78.12 -290.97,77.22 -291.70,76.44 -292.53,75.77 -293.42,75.18 -294.35,74.66 -295.30,74.19" via=":36_4_0" dir="r" state="M"/>
    <connection from="86845" to="86842" fromLane="0" toLane="0" contPos="-4.00" shape="-291.66,82.97 -288.02,79.08 -284.14,75.42 -280.04,72.01 -275.74,68.84 -274.84,68.22" via=":36_5_0" dir="s" state="M"/>
    <connection from="86846" to="86849" fromLane="0" toLane="0" contPos="-4.00" shape="-289.19,85.47 -291.10,87.86 -292.79,90.42 -294.23,93.12 -295.42,95.94 -296.36,98.86 -297.04,101.85 -297.49,104.88 -297.71,107.93 -297.75,109.97" via=":35_2_0" dir="s" state="m"/>
    <connection from="86848" to="86571" fromLane="0" toLane="0" contPos="-4.00" shape="-301.25,109.99 -301.36,107.01 -301.96,100.94 -303.16,92.86 -305.38,80.72" via=":35_0_0" dir="s" state="M"/>
    <connection from="86848" to="86845" fromLane="0" toLane="0" contPos="-4.00" shape="-301.25,109.99 -301.21,107.76 -300.96,104.44 -300.47,101.14 -299.72,97.87 -298.69,94.67 -297.37,91.57 -295.78,88.60 -293.92,85.79 -291.85,83.20" via=":35_1_0" dir="L" state="m"/>
    <connection from="86870" to="86873" fromLane="0" toLane="0" contPos="-4.00" shape="-317.29,57.08 -313.12,60.17 -307.88,63.59 -302.46,66.71 -295.96,70.02 -294.09,70.90" via=":34_4_0" dir="r" state="M"/>
    <connection from="86870" to="86572" fromLane="0" toLane="0" contPos="-4.00" shape="-317.29,57.08 -313.89,59.96 -311.49,62.32 -309.27,64.84 -307.25,67.52 -305.48,70.38 -303.99,73.39 -302.82,76.54 -302.00,79.80" via=":34_5_0" dir="s" state="M"/>