<routes>
	<vehicle depart="0.1" departLane="0" departPos="25.203818266590176" departSpeed="3.0079083" id="315" type="bicycle">
		<route edges=":43_0 76019"/>
	</vehicle>
	<vehicle depart="0.1" departLane="0" departPos="8.815239712541054" departSpeed="1.7752067" id="341" type="bus">
		<route edges=":48_1 75829"/>
	</vehicle>
	<vehicle depart="0.1" departLane="0" departPos="5.843308560435711" departSpeed="2.2846841" id="36" type="passenger">
		<route edges="76019"/>
	</vehicle>
	<vehicle depart="0.1" departLane="0" departPos="22.625063033121048" departSpeed="1.8826691" id="318" type="passenger">
		<route edges=":43_0 76019"/>
	</vehicle>
	<vehicle depart="0.1" departLane="0" departPos="22.945541126031156" departSpeed="5.8212643" id="324" type="passenger">
		<route edges=":46_2 75845 76019"/>
	</vehicle>
	<vehicle depart="0.1" departLane="0" departPos="54.1573499891122" departSpeed="14.250658" id="328" type="passenger">
		<route edges=":50_0 76022"/>
	</vehicle>
	<vehicle depart="0.1" departLane="0" departPos="31.33907522120592" departSpeed="12.736816" id="333" type="passenger">
		<route edges=":50_1 75956 75982"/>
	</vehicle>
	<vehicle depart="0.1" departLane="0" departPos="21.322221237402218" departSpeed="11.208806" id="338" type="passenger">
		<route edges=":50_1 75956 75982"/>
	</vehicle>
	<vehicle depart="0.1" departLane="0" departPos="23.986094151264247" departSpeed="4.4619486" id="344" type="motorcycle">
		<route edges="75981 75829"/>
	</vehicle>
</routes>
