<routes>
	<vehicle depart="0.1" departLane="0" departPos="35.77993632409059" departSpeed="1.1938769" id="37" type="bicycle">
		<route edges="67455 66870"/>
	</vehicle>
	<vehicle depart="0.1" departLane="0" departPos="33.89893750458121" departSpeed="6.9338952" id="352" type="bicycle">
		<route edges=":53_5 66867 67439"/>
	</vehicle>
	<vehicle depart="0.1" departLane="0" departPos="19.958484365271914" departSpeed="2.6295942" id="31" type="passenger">
		<route edges=":51_0 66868 66871"/>
	</vehicle>
	<vehicle depart="0.1" departLane="0" departPos="23.127091570290283" departSpeed="8.5720129" id="320" type="passenger">
		<route edges="66868 66871"/>
	</vehicle>
	<vehicle depart="0.1" departLane="0" departPos="6.556408391618213" departSpeed="2.9779806" id="326" type="passenger">
		<route edges="66868 66871"/>
	</vehicle>
	<vehicle depart="0.1" departLane="0" departPos="15.182084932399064" departSpeed="0.0" id="331" type="passenger">
		<route edges="66912 66867"/>
	</vehicle>
	<vehicle depart="0.1" departLane="0" departPos="28.956396846378578" departSpeed="1.4018128" id="338" type="passenger">
		<route edges="66867 73094"/>
	</vehicle>
	<vehicle depart="0.1" departLane="0" departPos="20.554980368875444" departSpeed="2.8635444" id="361" type="passenger">
		<route edges="66867 67439"/>
	</vehicle>
	<vehicle depart="0.1" departLane="0" departPos="10.216901242421422" departSpeed="6.6312906" id="321" type="motorcycle">
		<route edges="66868 66871"/>
	</vehicle>
	<vehicle depart="0.1" departLane="0" departPos="7.678323447479453" departSpeed="0.0" id="334" type="truck">
		<route edges="66912 66867"/>
	</vehicle>
</routes>
