<!-- generated on Tue Feb  9 22:01:55 2021 by Eclipse SUMO netconvert Version 1.8.0
<configuration xmlns:xsi="http://www.w3.org/2001/XMLSchema-instance" xsi:noNamespaceSchemaLocation="http://sumo.dlr.de/xsd/netconvertConfiguration.xsd">

    <input>
        <node-files value="./converted_scenarios/scenario-factory/DEU_Ibbenbueren-3_1_I-1-1/DEU_Ibbenbueren-3_1_I-1-1.nod.xml"/>
        <edge-files value="./converted_scenarios/scenario-factory/DEU_Ibbenbueren-3_1_I-1-1/DEU_Ibbenbueren-3_1_I-1-1.edg.xml"/>
        <connection-files value="./converted_scenarios/scenario-factory/DEU_Ibbenbueren-3_1_I-1-1/DEU_Ibbenbueren-3_1_I-1-1.con.xml"/>
        <tllogic-files value="./converted_scenarios/scenario-factory/DEU_Ibbenbueren-3_1_I-1-1/DEU_Ibbenbueren-3_1_I-1-1.tll.xml"/>
        <type-files value="/home/zen/commonroad-interactive-benchmarks/install/commonroad-map-tool/crmapconverter/sumo_map/templates/DEU.typ.xml"/>
    </input>

    <output>
        <output-file value="./converted_scenarios/scenario-factory/DEU_Ibbenbueren-3_1_I-1-1/DEU_Ibbenbueren-3_1_I-1-1.net.xml"/>
    </output>

    <processing>
        <geometry.remove.keep-edges.explicit value="true"/>
        <geometry.avoid-overlap value="true"/>
        <offset.disable-normalization value="true"/>
    </processing>

    <junctions>
        <no-turnarounds value="true"/>
        <junctions.internal-link-detail value="20"/>
    </junctions>

    <report>
        <aggregate-warnings value="5"/>
    </report>

    <random_number>
        <seed value="1234"/>
    </random_number>

</configuration>
--><net xmlns:xsi="http://www.w3.org/2001/XMLSchema-instance" version="1.6" junctionCornerDetail="5" junctionLinkDetail="20" limitTurnSpeed="5.50" xsi:noNamespaceSchemaLocation="http://sumo.dlr.de/xsd/net_file.xsd">

    <location netOffset="0.00,0.00" convBoundary="156.19,-203.68,338.41,18.25" origBoundary="99.26,-203.68,412.70,28.81" projParameter="!"/>

    <type id="highway.bridleway" priority="1" speed="2.78" allow="pedestrian" oneway="1" width="2.00"/>
    <type id="highway.bus_guideway" priority="1" speed="27.78" allow="bus" oneway="1"/>
    <type id="highway.cycleway" priority="1" speed="8.33" allow="bicycle" oneway="0" width="1.00"/>
    <type id="highway.footway" priority="1" speed="2.78" allow="pedestrian" oneway="1" width="2.00"/>
    <type id="highway.ford" priority="1" speed="2.78" allow="army" oneway="0"/>
    <type id="highway.living_street" priority="2" speed="2.78" disallow="tram rail_urban rail rail_electric rail_fast ship" oneway="0"/>
    <type id="highway.motorway" priority="14" speed="39.44" allow="private emergency authority army vip passenger hov taxi bus coach delivery truck trailer motorcycle evehicle custom1 custom2" oneway="1"/>
    <type id="highway.motorway_link" priority="9" speed="22.22" allow="private emergency authority army vip passenger hov taxi bus coach delivery truck trailer motorcycle evehicle custom1 custom2" oneway="1"/>
    <type id="highway.path" priority="1" speed="2.78" allow="pedestrian bicycle" oneway="0" width="2.00"/>
    <type id="highway.pedestrian" priority="1" speed="2.78" allow="pedestrian" oneway="1" width="2.00"/>
    <type id="highway.primary" priority="12" speed="27.78" disallow="pedestrian tram rail_urban rail rail_electric rail_fast ship" oneway="0"/>
    <type id="highway.primary_link" priority="7" speed="22.22" disallow="pedestrian tram rail_urban rail rail_electric rail_fast ship" oneway="0"/>
    <type id="highway.raceway" priority="15" speed="83.33" allow="vip" oneway="0"/>
    <type id="highway.residential" priority="3" speed="13.89" disallow="pedestrian tram rail_urban rail rail_electric rail_fast ship" oneway="0"/>
    <type id="highway.secondary" priority="11" speed="27.78" disallow="pedestrian tram rail_urban rail rail_electric rail_fast ship" oneway="0"/>
    <type id="highway.secondary_link" priority="6" speed="22.22" disallow="pedestrian tram rail_urban rail rail_electric rail_fast ship" oneway="0"/>
    <type id="highway.service" priority="1" speed="5.56" allow="pedestrian delivery bicycle" oneway="0"/>
    <type id="highway.stairs" priority="1" speed="1.39" allow="pedestrian" oneway="1" width="2.00"/>
    <type id="highway.step" priority="1" speed="1.39" allow="pedestrian" oneway="1" width="2.00"/>
    <type id="highway.steps" priority="1" speed="1.39" allow="pedestrian" oneway="1" width="2.00"/>
    <type id="highway.tertiary" priority="10" speed="22.22" disallow="pedestrian tram rail_urban rail rail_electric rail_fast ship" oneway="0"/>
    <type id="highway.tertiary_link" priority="5" speed="22.22" disallow="pedestrian tram rail_urban rail rail_electric rail_fast ship" oneway="0"/>
    <type id="highway.track" priority="1" speed="5.56" allow="pedestrian motorcycle moped bicycle" oneway="0"/>
    <type id="highway.trunk" priority="13" speed="27.78" disallow="pedestrian bicycle tram rail_urban rail rail_electric rail_fast ship" oneway="0"/>
    <type id="highway.trunk_link" priority="8" speed="22.22" disallow="pedestrian bicycle tram rail_urban rail rail_electric rail_fast ship" oneway="0"/>
    <type id="highway.unclassified" priority="4" speed="13.89" disallow="pedestrian tram rail_urban rail rail_electric rail_fast ship" oneway="0"/>
    <type id="highway.unsurfaced" priority="1" speed="8.33" disallow="tram rail_urban rail rail_electric rail_fast ship" oneway="0"/>
    <type id="railway.highspeed" priority="21" speed="69.44" allow="rail_fast" oneway="1"/>
    <type id="railway.light_rail" priority="19" speed="27.78" allow="rail_urban" oneway="1"/>
    <type id="railway.preserved" priority="16" speed="27.78" allow="rail" oneway="1"/>
    <type id="railway.rail" priority="20" speed="44.44" allow="rail" oneway="1"/>
    <type id="railway.subway" priority="18" speed="27.78" allow="rail_urban" oneway="1"/>
    <type id="railway.tram" priority="17" speed="13.89" allow="tram" oneway="1"/>

    <edge id=":45_0" function="internal">
        <lane id=":45_0_0" index="0" disallow="pedestrian tram rail_urban rail rail_electric rail_fast ship" speed="36.11" length="38.13" width="3.50" shape="324.25,-47.19 322.79,-48.41 318.53,-51.35 310.60,-56.24 297.15,-63.99 291.73,-67.03"/>
    </edge>
    <edge id=":45_1" function="internal">
        <lane id=":45_1_0" index="0" disallow="pedestrian tram rail_urban rail rail_electric rail_fast ship" speed="13.32" length="32.18" width="3.50" shape="324.26,-47.20 322.71,-48.82 320.39,-51.58 318.33,-54.58 317.13,-56.75 316.15,-59.04 315.42,-61.45 315.01,-63.96 314.94,-66.52 315.25,-69.06 315.90,-71.51 316.86,-73.85 318.05,-76.02"/>
    </edge>
    <edge id=":45_2" function="internal">
        <lane id=":45_2_0" index="0" disallow="pedestrian tram rail_urban rail rail_electric rail_fast ship" speed="12.37" length="27.66" width="3.50" shape="321.06,-74.25 320.01,-72.33 319.22,-70.36 318.69,-68.30 318.47,-66.19 318.55,-64.06 318.93,-61.97 319.58,-59.94 320.44,-58.00 321.48,-56.15 323.31,-53.53 325.37,-51.09 326.81,-49.59"/>
    </edge>
    <edge id=":45_3" function="internal">
        <lane id=":45_3_0" index="0" disallow="pedestrian tram rail_urban rail rail_electric rail_fast ship" speed="12.28" length="34.30" width="3.50" shape="321.07,-74.24 319.57,-72.01 317.93,-69.95 316.10,-68.05 314.07,-66.38 311.82,-65.00 310.63,-64.45 309.39,-63.99 308.12,-63.64 306.83,-63.39 305.52,-63.25 302.89,-63.28 300.28,-63.66 297.74,-64.35 295.28,-65.28 291.73,-67.03"/>
    </edge>
    <edge id=":45_4" function="internal">
        <lane id=":45_4_0" index="0" disallow="pedestrian tram rail_urban rail rail_electric rail_fast ship" speed="11.29" length="28.84" width="3.50" shape="293.41,-70.10 296.54,-68.55 298.65,-67.76 300.81,-67.17 302.98,-66.84 305.19,-66.82 306.22,-66.93 307.27,-67.13 308.30,-67.41 309.30,-67.78 310.24,-68.21 312.12,-69.36 313.82,-70.75 315.38,-72.36 316.79,-74.14 318.05,-76.02"/>
    </edge>
    <edge id=":45_5" function="internal">
        <lane id=":45_5_0" index="0" disallow="pedestrian tram rail_urban rail rail_electric rail_fast ship" speed="36.11" length="39.24" width="3.50" shape="293.41,-70.10 298.94,-67.00 312.58,-59.12 320.67,-54.12 325.08,-51.06 326.81,-49.59"/>
    </edge>
    <edge id=":46_0" function="internal">
        <lane id=":46_0_0" index="0" disallow="pedestrian tram rail_urban rail rail_electric rail_fast ship" speed="11.17" length="28.76" width="3.50" shape="332.74,9.26 331.77,6.07 330.51,3.00 329.48,1.04 328.26,-0.80 326.83,-2.48 326.02,-3.24 325.15,-3.93 324.23,-4.54 323.26,-5.06 322.24,-5.49 321.18,-5.83 320.10,-6.07 319.01,-6.21 316.80,-6.24 314.60,-5.99 312.45,-5.49"/>
    </edge>
    <edge id=":46_1" function="internal">
        <lane id=":46_1_0" index="0" disallow="pedestrian tram rail_urban rail rail_electric rail_fast ship" speed="36.11" length="42.29" width="3.50" shape="332.74,9.26 331.87,5.21 331.38,1.11 331.18,-4.04 331.41,-11.26 331.84,-20.53 331.82,-25.69 331.52,-29.80 331.09,-32.85"/>
    </edge>
    <edge id=":46_2" function="internal">
        <lane id=":46_2_0" index="0" disallow="pedestrian tram rail_urban rail rail_electric rail_fast ship" speed="12.80" length="40.12" width="3.50" shape="332.74,9.26 332.18,6.77 331.82,4.23 331.72,1.64 331.94,-0.98 332.53,-3.55 332.99,-4.85 333.55,-6.07 334.22,-7.25 334.97,-8.36 335.82,-9.40 336.75,-10.39 338.74,-12.08 340.91,-13.51 343.20,-14.70 346.72,-16.08 350.32,-17.11 353.95,-17.86"/>
    </edge>
    <edge id=":46_3" function="internal">
        <lane id=":46_3_0" index="0" disallow="pedestrian tram rail_urban rail rail_electric rail_fast ship" speed="11.85" length="34.22" width="3.50" shape="354.58,-14.42 351.33,-13.75 348.14,-12.85 345.05,-11.65 343.08,-10.65 341.23,-9.46 339.53,-8.05 338.76,-7.26 338.05,-6.42 337.41,-5.52 336.85,-4.56 336.38,-3.57 335.99,-2.54 335.47,-0.39 335.26,1.80 335.33,4.01 335.63,6.20 336.12,8.35"/>
    </edge>
    <edge id=":46_4" function="internal">
        <lane id=":46_4_0" index="0" disallow="pedestrian tram rail_urban rail rail_electric rail_fast ship" speed="36.11" length="43.08" width="3.50" shape="354.58,-14.42 337.43,-11.24 324.38,-8.48 314.42,-6.03 312.45,-5.49"/>
    </edge>
    <edge id=":46_5" function="internal">
        <lane id=":46_5_0" index="0" disallow="pedestrian tram rail_urban rail rail_electric rail_fast ship" speed="12.26" length="34.15" width="3.50" shape="354.58,-14.42 352.03,-14.08 349.43,-13.97 346.81,-14.16 344.23,-14.70 342.92,-15.14 341.67,-15.68 340.47,-16.32 339.33,-17.08 338.27,-17.92 337.28,-18.86 336.37,-19.89 334.85,-22.03 333.62,-24.34 332.65,-26.73 331.89,-29.18 331.09,-32.85"/>
    </edge>
    <edge id=":46_6" function="internal">
        <lane id=":46_6_0" index="0" disallow="pedestrian tram rail_urban rail rail_electric rail_fast ship" speed="11.27" length="28.64" width="3.50" shape="334.52,-33.55 335.23,-30.24 335.88,-28.14 336.69,-26.10 337.72,-24.15 338.98,-22.35 339.70,-21.53 340.49,-20.76 341.34,-20.07 342.25,-19.45 343.21,-18.92 344.22,-18.48 345.26,-18.12 347.40,-17.66 349.59,-17.49 351.79,-17.58 353.95,-17.86"/>
    </edge>
    <edge id=":46_7" function="internal">
        <lane id=":46_7_0" index="0" disallow="pedestrian tram rail_urban rail rail_electric rail_fast ship" speed="36.11" length="42.08" width="3.50" shape="334.52,-33.55 334.98,-30.29 335.28,-26.08 335.31,-20.83 334.87,-11.56 334.64,-4.44 334.82,0.56 335.29,4.49 336.12,8.35"/>
    </edge>
    <edge id=":46_8" function="internal">
        <lane id=":46_8_0" index="0" disallow="pedestrian tram rail_urban rail rail_electric rail_fast ship" speed="13.49" length="39.96" width="3.50" shape="334.52,-33.55 334.86,-30.99 334.97,-28.50 334.84,-26.01 334.42,-23.56 333.70,-21.17 332.67,-18.90 331.35,-16.79 329.77,-14.86 327.98,-13.13 326.03,-11.58 323.94,-10.22 320.64,-8.47 317.19,-7.03 313.64,-5.84 312.45,-5.49"/>
    </edge>
    <edge id=":46_9" function="internal">
        <lane id=":46_9_0" index="0" disallow="pedestrian tram rail_urban rail rail_electric rail_fast ship" speed="12.60" length="34.65" width="3.50" shape="311.51,-8.87 312.57,-9.17 315.80,-10.25 318.90,-11.53 321.85,-13.07 323.68,-14.25 325.39,-15.58 326.94,-17.05 328.30,-18.67 329.44,-20.44 330.33,-22.33 330.96,-24.33 331.33,-26.41 331.46,-28.55 331.37,-30.70 331.09,-32.85"/>
    </edge>
    <edge id=":46_10" function="internal">
        <lane id=":46_10_0" index="0" disallow="pedestrian tram rail_urban rail rail_electric rail_fast ship" speed="36.11" length="43.40" width="3.50" shape="311.51,-8.87 313.52,-9.42 323.57,-11.89 336.72,-14.67 353.95,-17.86"/>
    </edge>
    <edge id=":46_11" function="internal">
        <lane id=":46_11_0" index="0" disallow="pedestrian tram rail_urban rail rail_electric rail_fast ship" speed="12.18" length="34.38" width="3.50" shape="311.51,-8.87 314.04,-9.45 316.66,-9.76 319.30,-9.75 320.68,-9.59 322.02,-9.31 323.33,-8.92 324.61,-8.40 325.83,-7.77 326.99,-7.04 328.08,-6.21 329.10,-5.27 330.84,-3.29 332.32,-1.11 333.55,1.19 335.00,4.72 336.12,8.35"/>
    </edge>
    <edge id=":47_0" function="internal">
        <lane id=":47_0_0" index="0" disallow="pedestrian tram rail_urban rail rail_electric rail_fast ship" speed="11.01" length="29.03" width="3.50" shape="268.35,-81.64 265.61,-83.61 262.73,-85.32 260.71,-86.28 258.61,-87.03 256.43,-87.51 255.32,-87.63 254.21,-87.65 253.09,-87.58 251.99,-87.39 250.92,-87.09 249.88,-86.69 248.88,-86.19 247.94,-85.60 246.21,-84.19 244.69,-82.55 243.37,-80.77"/>
    </edge>
    <edge id=":47_1" function="internal">
        <lane id=":47_1_0" index="0" disallow="pedestrian tram rail_urban rail rail_electric rail_fast ship" speed="36.11" length="42.84" width="3.50" shape="268.34,-81.64 265.21,-84.29 262.30,-87.15 258.25,-91.73 250.46,-101.16 246.99,-104.89 243.99,-107.66 240.76,-110.15 238.18,-111.79"/>
    </edge>
    <edge id=":47_2" function="internal">
        <lane id=":47_2_0" index="0" disallow="pedestrian tram rail_urban rail rail_electric rail_fast ship" speed="13.66" length="41.54" width="3.50" shape="268.35,-81.64 267.34,-82.45 264.63,-84.93 262.94,-86.81 261.44,-88.84 260.14,-91.04 259.11,-93.39 258.37,-95.86 257.96,-98.41 257.88,-100.98 258.11,-103.52 258.60,-106.00 259.32,-108.42 260.72,-111.85 262.45,-115.11 264.41,-118.21"/>
    </edge>
    <edge id=":47_3" function="internal">
        <lane id=":47_3_0" index="0" disallow="pedestrian tram rail_urban rail rail_electric rail_fast ship" speed="12.77" length="36.15" width="3.50" shape="267.30,-116.23 265.53,-113.46 263.99,-110.55 262.74,-107.52 262.11,-105.42 261.67,-103.27 261.46,-101.09 261.52,-98.90 261.85,-96.74 262.46,-94.63 263.33,-92.62 264.43,-90.73 265.73,-88.97 267.19,-87.33 269.61,-85.11 270.47,-84.42"/>
    </edge>
    <edge id=":47_4" function="internal">
        <lane id=":47_4_0" index="0" disallow="pedestrian tram rail_urban rail rail_electric rail_fast ship" speed="36.11" length="42.78" width="3.50" shape="267.30,-116.23 244.49,-82.45 243.37,-80.77"/>
    </edge>
    <edge id=":47_5" function="internal">
        <lane id=":47_5_0" index="0" disallow="pedestrian tram rail_urban rail rail_electric rail_fast ship" speed="12.38" length="33.20" width="3.50" shape="267.30,-116.23 265.76,-114.19 264.04,-112.30 262.11,-110.63 259.97,-109.24 258.83,-108.67 257.65,-108.19 256.43,-107.82 255.18,-107.54 252.64,-107.29 250.09,-107.42 247.57,-107.86 245.12,-108.56 241.57,-110.00 238.18,-111.79"/>
    </edge>
    <edge id=":47_6" function="internal">
        <lane id=":47_6_0" index="0" disallow="pedestrian tram rail_urban rail rail_electric rail_fast ship" speed="11.38" length="27.91" width="3.50" shape="239.92,-114.82 242.91,-113.24 246.01,-111.98 248.09,-111.37 250.20,-110.98 252.31,-110.86 254.42,-111.04 255.40,-111.25 256.38,-111.54 257.34,-111.91 258.24,-112.35 260.03,-113.49 261.64,-114.87 263.10,-116.46 264.41,-118.21"/>
    </edge>
    <edge id=":47_7" function="internal">
        <lane id=":47_7_0" index="0" disallow="pedestrian tram rail_urban rail rail_electric rail_fast ship" speed="36.11" length="43.30" width="3.50" shape="239.92,-114.82 242.65,-113.08 246.03,-110.49 249.15,-107.62 252.73,-103.79 260.59,-94.30 264.61,-89.77 267.44,-86.98 270.47,-84.42"/>
    </edge>
    <edge id=":47_8" function="internal">
        <lane id=":47_8_0" index="0" disallow="pedestrian tram rail_urban rail rail_electric rail_fast ship" speed="12.76" length="39.56" width="3.50" shape="239.92,-114.82 242.13,-113.41 244.20,-111.78 246.09,-109.88 247.69,-107.74 248.40,-106.52 248.98,-105.28 249.45,-103.98 249.80,-102.66 250.04,-101.31 250.17,-99.95 250.20,-98.57 249.97,-95.94 249.43,-93.36 248.65,-90.86 247.16,-87.33 245.37,-83.97 243.37,-80.77"/>
    </edge>
    <edge id=":47_9" function="internal">
        <lane id=":47_9_0" index="0" disallow="pedestrian tram rail_urban rail rail_electric rail_fast ship" speed="11.81" length="33.73" width="3.50" shape="240.46,-82.72 242.24,-85.56 243.84,-88.54 245.18,-91.64 245.87,-93.78 246.36,-95.97 246.60,-98.21 246.60,-99.33 246.52,-100.46 246.34,-101.57 246.08,-102.66 245.72,-103.73 245.26,-104.76 244.72,-105.74 243.40,-107.56 241.83,-109.17 240.07,-110.57 238.18,-111.79"/>
    </edge>
    <edge id=":47_10" function="internal">
        <lane id=":47_10_0" index="0" disallow="pedestrian tram rail_urban rail rail_electric rail_fast ship" speed="36.11" length="42.82" width="3.50" shape="240.46,-82.72 241.59,-84.40 264.41,-118.21"/>
    </edge>
    <edge id=":47_11" function="internal">
        <lane id=":47_11_0" index="0" disallow="pedestrian tram rail_urban rail rail_electric rail_fast ship" speed="12.02" length="34.84" width="3.50" shape="240.46,-82.72 242.02,-84.82 243.82,-86.79 245.88,-88.51 247.07,-89.28 248.30,-89.92 249.60,-90.46 250.94,-90.86 252.32,-91.12 253.71,-91.25 255.10,-91.25 256.51,-91.13 259.12,-90.59 261.64,-89.72 264.03,-88.61 267.35,-86.66 270.47,-84.42"/>
    </edge>
    <edge id=":48_0" function="internal">
        <lane id=":48_0_0" index="0" disallow="pedestrian tram rail_urban rail rail_electric rail_fast ship" speed="10.85" length="29.95" width="3.50" shape="300.82,-130.33 296.30,-134.40 294.38,-135.75 292.32,-136.85 291.31,-137.25 290.25,-137.56 289.19,-137.76 288.12,-137.84 287.06,-137.79 286.01,-137.61 284.98,-137.30 283.97,-136.88 283.00,-136.35 282.06,-135.73 281.17,-135.05 279.45,-133.42 277.89,-131.62 276.45,-129.65"/>
    </edge>
    <edge id=":48_1" function="internal">
        <lane id=":48_1_0" index="0" disallow="pedestrian tram rail_urban rail rail_electric rail_fast ship" speed="36.11" length="40.74" width="3.50" shape="300.82,-130.33 292.78,-137.66 285.71,-143.63 277.62,-149.98 269.27,-156.05"/>
    </edge>
    <edge id=":48_2" function="internal">
        <lane id=":48_2_0" index="0" disallow="pedestrian tram rail_urban rail rail_electric rail_fast ship" speed="36.11" length="26.43" width="3.50" shape="271.30,-158.89 272.03,-158.39 272.88,-157.78 273.85,-157.07 274.92,-156.27 276.07,-155.41 277.29,-154.48 278.56,-153.51 279.87,-152.51 281.20,-151.48 282.54,-150.44 283.86,-149.41 285.16,-148.39 286.42,-147.40 287.62,-146.45 288.74,-145.55 289.78,-144.71 290.71,-143.96 291.53,-143.29 292.20,-142.72"/>
    </edge>
    <edge id=":48_3" function="internal">
        <lane id=":48_3_0" index="0" disallow="pedestrian tram rail_urban rail rail_electric rail_fast ship" speed="12.17" length="34.06" width="3.50" shape="271.25,-158.94 274.39,-156.48 276.28,-154.67 277.96,-152.67 279.37,-150.48 279.96,-149.31 280.44,-148.10 280.83,-146.85 281.11,-145.57 281.27,-144.28 281.32,-142.97 281.27,-141.67 280.86,-139.09 280.12,-136.58 279.10,-134.18 277.87,-131.87 276.45,-129.65"/>
    </edge>
    <edge id=":48_4" function="internal">
        <lane id=":48_4_0" index="0" disallow="pedestrian tram rail_urban rail rail_electric rail_fast ship" speed="11.16" length="28.48" width="3.50" shape="273.56,-131.62 274.80,-133.56 275.86,-135.54 276.73,-137.59 277.35,-139.68 277.69,-141.83 277.73,-142.86 277.69,-143.90 277.56,-144.94 277.34,-145.97 277.03,-146.97 276.64,-147.95 276.18,-148.87 275.00,-150.71 273.58,-152.39 271.99,-153.93 269.27,-156.05"/>
    </edge>
    <edge id=":48_5" function="internal">
        <lane id=":48_5_0" index="0" disallow="pedestrian tram rail_urban rail rail_electric rail_fast ship" speed="14.33" length="27.73" width="3.50" shape="273.56,-131.62 273.94,-132.08 274.43,-132.50 275.04,-132.89 275.77,-133.24 276.61,-133.57 277.56,-133.87 278.64,-134.13 279.82,-134.37 281.13,-134.57 282.54,-134.74 284.08,-134.88 285.73,-134.98 287.50,-135.06 289.38,-135.11 291.37,-135.12 293.49,-135.10 295.72,-135.05 298.06,-134.97 300.52,-134.86"/>
    </edge>
    <edge id=":50_0" function="internal">
        <lane id=":50_0_0" index="0" disallow="pedestrian tram rail_urban rail rail_electric rail_fast ship" speed="14.82" length="29.47" width="3.49" shape="180.17,-124.66 181.14,-126.52 182.30,-129.46 182.85,-131.44 183.23,-133.48 183.42,-135.55 183.44,-137.61 183.13,-140.74 182.47,-143.83 181.49,-146.85 180.25,-149.80 178.76,-152.70"/>
    </edge>
    <edge id=":50_1" function="internal">
        <lane id=":50_1_0" index="0" disallow="pedestrian tram rail_urban rail rail_electric rail_fast ship" speed="12.02" length="34.45" width="3.50" shape="180.17,-124.66 182.26,-128.07 184.60,-131.28 186.34,-133.27 188.26,-135.10 190.37,-136.69 191.51,-137.37 192.69,-137.96 193.92,-138.45 195.19,-138.82 196.50,-139.06 197.81,-139.17 199.14,-139.14 200.45,-138.99 201.75,-138.73 204.26,-137.89 206.64,-136.72 207.78,-136.04"/>
    </edge>
    <edge id=":50_2" function="internal">
        <lane id=":50_2_0" index="0" disallow="pedestrian tram rail_urban rail rail_electric rail_fast ship" speed="11.01" length="28.69" width="3.50" shape="205.90,-133.09 204.97,-133.65 202.97,-134.62 200.89,-135.29 199.89,-135.48 198.85,-135.57 197.81,-135.57 196.78,-135.46 195.77,-135.24 194.77,-134.92 193.80,-134.51 192.85,-134.01 191.96,-133.45 190.19,-132.08 188.58,-130.50 187.10,-128.78 185.05,-125.95 183.21,-122.93"/>
    </edge>
    <edge id=":50_3" function="internal">
        <lane id=":50_3_0" index="0" disallow="pedestrian tram rail_urban rail rail_electric rail_fast ship" speed="27.47" length="33.58" width="3.49" shape="205.90,-133.09 193.20,-141.35 186.09,-146.29 181.80,-149.59 180.18,-151.02 179.43,-151.80 178.76,-152.70"/>
    </edge>
    <edge id=":50_4" function="internal">
        <lane id=":50_4_0" index="0" disallow="pedestrian tram rail_urban rail rail_electric rail_fast ship" speed="26.58" length="31.75" width="3.50" shape="181.89,-154.31 182.26,-153.84 182.89,-153.22 184.40,-151.92 188.53,-148.80 195.43,-144.05 207.78,-136.04"/>
    </edge>
    <edge id=":50_5" function="internal">
        <lane id=":50_5_0" index="0" disallow="pedestrian tram rail_urban rail rail_electric rail_fast ship" speed="15.68" length="32.95" width="3.50" shape="181.86,-154.30 183.45,-151.22 184.82,-147.96 185.89,-144.59 186.62,-141.13 186.95,-137.62 186.92,-135.26 186.69,-132.92 186.26,-130.60 185.62,-128.33 184.31,-125.05 183.21,-122.93"/>
    </edge>

    <edge id="32551" from="46" to="50" priority="3" type="highway.residential" spreadType="center" length="397.55" shape="332.22,-10.60 188.44,-136.00">
        <lane id="32551_0" index="0" disallow="pedestrian tram rail_urban rail rail_electric rail_fast ship" speed="36.11" length="397.55" width="3.50" customShape="1" shape="312.45,-5.49 299.13,-1.81 289.69,0.53 282.17,2.05 275.09,3.10 268.46,3.70 262.33,3.89 259.77,3.78 257.26,3.32 254.31,2.45 252.40,1.73 249.68,0.30 247.00,-1.20 244.16,-2.35 240.75,-3.45 238.24,-3.89 235.68,-3.97 232.62,-3.74 228.59,-3.04 217.61,-0.53 210.68,1.28 205.69,2.38 199.63,3.38 194.10,4.43 190.16,5.53 187.30,6.65 185.07,7.89 183.45,9.14 181.66,10.97 180.00,12.92 177.61,15.58 174.94,17.97 172.91,19.51 171.12,20.51 168.78,21.55 166.41,22.52 161.11,24.39 155.69,25.91 150.19,27.09 144.12,28.02 137.50,28.67 133.92,28.81 130.86,28.57 127.84,28.03 123.88,26.99 121.50,26.07 119.25,24.85 117.60,23.64 115.73,21.90 112.98,18.86 111.04,16.49 110.23,15.19 109.19,12.85 107.24,7.57 105.65,2.17 104.28,-3.81 102.99,-11.38 101.40,-24.07 99.90,-35.74 99.33,-39.80 99.26,-41.84 99.50,-44.90 100.09,-47.91 101.02,-50.84 102.45,-54.12 104.92,-58.60 107.86,-63.40 113.72,-71.79 115.42,-74.34 118.57,-78.37 121.55,-81.89 124.04,-84.46 126.34,-86.49 129.23,-88.61 132.32,-90.42 135.53,-91.99 138.85,-93.34 144.21,-95.04 152.97,-97.89 156.38,-99.00 159.22,-100.15 161.48,-101.35 163.99,-103.12 166.28,-105.16 169.40,-108.54 172.31,-112.12 175.18,-116.35 180.21,-124.73"/>
    </edge>
    <edge id="32552" from="50" to="46" priority="3" type="highway.residential" spreadType="center" length="389.07" shape="190.74,-138.64 334.52,-13.24">
        <lane id="32552_0" index="0" disallow="pedestrian tram rail_urban rail rail_electric rail_fast ship" speed="36.11" length="389.07" width="3.50" customShape="1" shape="183.21,-122.93 178.24,-114.63 175.34,-110.34 172.42,-106.68 169.27,-103.22 166.94,-101.04 164.38,-99.09 162.04,-97.69 159.12,-96.33 155.68,-95.09 147.00,-92.26 141.69,-90.59 138.49,-89.42 135.37,-88.02 132.37,-86.40 129.58,-84.55 127.36,-82.73 124.92,-80.36 121.99,-77.02 118.89,-73.11 117.20,-70.69 111.41,-62.40 108.50,-57.77 106.05,-53.44 104.62,-50.38 103.68,-47.70 103.06,-44.95 102.78,-42.13 102.80,-40.32 103.34,-36.40 104.83,-24.83 106.39,-12.30 107.63,-4.90 108.94,0.93 110.46,6.17 112.34,11.30 113.27,13.45 113.94,14.53 115.78,16.75 118.40,19.64 120.13,21.18 121.62,22.19 123.69,23.19 125.92,23.94 129.67,24.82 132.50,25.21 135.40,25.27 138.80,25.05 145.23,24.33 151.12,23.33 156.44,22.09 161.66,20.51 166.75,18.59 168.88,17.65 170.98,16.44 172.52,15.36 174.27,13.82 176.71,11.31 179.12,8.68 180.99,6.86 183.07,5.19 184.94,4.02 187.39,2.86 190.43,1.80 194.48,0.77 200.03,-0.22 205.98,-1.25 210.86,-2.39 217.72,-4.14 228.68,-6.63 232.81,-7.28 236.01,-7.47 238.73,-7.36 241.46,-6.88 245.01,-5.77 247.98,-4.60 250.80,-3.10 253.36,-1.69 255.04,-1.00 257.79,-0.15 260.05,0.29 262.39,0.39 268.35,0.20 274.80,-0.39 281.71,-1.43 289.08,-2.92 298.35,-5.22 311.52,-8.87"/>
    </edge>
    <edge id="32554" from="46" to="45" priority="3" type="highway.residential" spreadType="center" length="207.52" shape="331.77,-11.22 310.94,-63.36">
        <lane id="32554_0" index="0" disallow="pedestrian tram rail_urban rail rail_electric rail_fast ship" speed="36.11" length="207.52" width="3.50" customShape="1" shape="353.95,-17.86 358.31,-18.66 365.02,-20.13 370.70,-21.69 375.35,-23.25 377.60,-24.23 379.71,-25.48 381.66,-26.96 383.75,-29.03 387.77,-33.99 392.77,-40.66 396.91,-46.75 400.50,-52.60 403.80,-58.63 406.60,-64.36 407.52,-66.63 408.74,-71.38 409.10,-72.81 409.22,-74.27 408.97,-76.71 408.38,-79.09 407.47,-81.37 406.25,-83.50 404.75,-85.43 402.71,-87.55 400.79,-89.08 397.52,-91.25 385.06,-99.97 378.91,-104.02 373.82,-106.99 369.01,-109.43 365.41,-110.99 362.60,-111.87 360.19,-112.29 357.74,-112.33 355.30,-112.02 351.95,-111.26 349.15,-110.37 346.47,-109.16 343.95,-107.63 342.07,-106.06 340.41,-104.26 337.30,-100.46 334.15,-96.08 330.98,-91.12 326.03,-82.64 321.04,-74.20"/>
    </edge>
    <edge id="32555" from="45" to="46" priority="3" type="highway.residential" spreadType="center" length="221.47" shape="314.19,-64.66 335.01,-12.52">
        <lane id="32555_0" index="0" disallow="pedestrian tram rail_urban rail rail_electric rail_fast ship" speed="36.11" length="221.47" width="3.50" customShape="1" shape="318.05,-76.02 323.20,-84.74 328.36,-93.52 331.71,-98.70 335.07,-103.29 338.43,-107.28 340.34,-109.19 342.52,-110.87 345.35,-112.51 348.32,-113.79 351.39,-114.73 355.02,-115.52 357.74,-115.83 360.51,-115.77 363.25,-115.31 366.37,-114.37 370.24,-112.72 375.31,-110.16 380.66,-107.05 387.07,-102.83 399.98,-93.81 403.41,-91.48 405.46,-89.74 407.69,-87.37 409.33,-85.17 410.68,-82.76 411.70,-80.20 412.38,-77.52 412.70,-74.78 412.65,-72.97 412.32,-71.25 411.06,-66.27 410.12,-63.67 407.22,-57.63 403.80,-51.31 400.06,-45.17 395.74,-38.81 390.54,-31.85 386.30,-26.63 383.99,-24.35 381.82,-22.68 379.48,-21.27 376.99,-20.13 372.07,-18.45 366.11,-16.79 359.10,-15.25 354.55,-14.41"/>
    </edge>
    <edge id="32575" from="46" to="29" priority="3" type="highway.residential" spreadType="center" length="9.39" shape="335.09,-12.22 338.41,17.46">
        <lane id="32575_0" index="0" disallow="pedestrian tram rail_urban rail rail_electric rail_fast ship" speed="36.11" length="9.39" width="3.50" customShape="1" shape="336.12,8.35 336.66,10.37 338.41,17.46"/>
    </edge>
    <edge id="32576" from="39" to="46" priority="3" type="highway.residential" spreadType="center" length="9.30" shape="335.00,18.25 331.62,-11.83">
        <lane id="32576_0" index="0" disallow="pedestrian tram rail_urban rail rail_electric rail_fast ship" speed="36.11" length="9.30" width="3.50" customShape="1" shape="335.00,18.25 333.26,11.23 332.73,9.23"/>
    </edge>
    <edge id="32578" from="45" to="46" priority="3" type="highway.residential" spreadType="center" length="18.22" shape="314.19,-64.66 335.01,-12.52">
        <lane id="32578_0" index="0" disallow="pedestrian tram rail_urban rail rail_electric rail_fast ship" speed="36.11" length="18.22" width="3.50" customShape="1" shape="326.81,-49.59 328.35,-47.95 330.02,-45.76 331.43,-43.40 332.79,-40.39 333.77,-37.24 334.54,-33.45"/>
    </edge>
    <edge id="32579" from="46" to="45" priority="3" type="highway.residential" spreadType="center" length="16.19" shape="331.77,-11.22 310.94,-63.36">
        <lane id="32579_0" index="0" disallow="pedestrian tram rail_urban rail rail_electric rail_fast ship" speed="36.11" length="16.19" width="3.50" customShape="1" shape="331.09,-32.85 330.40,-36.29 329.55,-39.07 328.36,-41.72 327.15,-43.77 325.69,-45.68 324.26,-47.20"/>
    </edge>
    <edge id="32581" from="47" to="45" priority="3" type="highway.residential" spreadType="center" length="27.12" shape="254.91,-100.35 313.46,-65.51">