<routes>
	<vehicle depart="0.1" departLane="0" departPos="42.634144996927354" departSpeed="5.8944284" id="34" type="bicycle">
		<route edges=":47_7 32581 32555"/>
	</vehicle>
	<vehicle depart="0.1" departLane="0" departPos="26.761062108253903" departSpeed="0.12245131" id="37" type="passenger">
		<route edges=":47_5 32585"/>
	</vehicle>
	<vehicle depart="0.1" departLane="0" departPos="17.4255175839892" departSpeed="0.038375646" id="312" type="passenger">
		<route edges=":47_0 32617"/>
	</vehicle>
	<vehicle depart="0.1" departLane="0" departPos="24.6441083831704" departSpeed="1.2967321" id="314" type="passenger">
		<route edges="32582 32617"/>
	</vehicle>
	<vehicle depart="0.1" departLane="0" departPos="11.90771173031378" departSpeed="2.0946446" id="315" type="passenger">
		<route edges=":47_11 32581"/>
	</vehicle>
	<vehicle depart="0.1" departLane="0" departPos="19.980053871174857" departSpeed="2.3049787" id="325" type="passenger">
		<route edges="32584 32581"/>
	</vehicle>
	<vehicle depart="0.1" departLane="0" departPos="10.479957324723411" departSpeed="2.5151855" id="328" type="passenger">
		<route edges="32584 32581"/>
	</vehicle>
	<vehicle depart="0.1" departLane="0" departPos="2.5" departSpeed="2.8914452" id="331" type="passenger">
		<route edges="32584 32581"/>
	</vehicle>
	<vehicle depart="0.1" departLane="0" departPos="15.605774203100708" departSpeed="4.3269198" id="333" type="motorcycle">
		<route edges=":50_4 32584"/>
	</vehicle>
	<vehicle depart="0.1" departLane="0" departPos="3.75" departSpeed="1.0997326" id="318" type="truck">
		<route edges="32582 32585"/>
	</vehicle>
</routes>
