<routes>
	<vehicle depart="0.1" departLane="0" departPos="21.939808311802334" departSpeed="10.856862" id="354" type="bus">
		<route edges="78021 77393"/>
	</vehicle>
	<vehicle depart="0.1" departLane="0" departPos="17.135465531200996" departSpeed="8.8445359" id="37" type="passenger">
		<route edges=":34_5 78024 78027"/>
	</vehicle>
	<vehicle depart="0.1" departLane="0" departPos="7.952587797763634" departSpeed="1.2030963e-05" id="316" type="passenger">
		<route edges=":35_0 78023"/>
	</vehicle>
	<vehicle depart="0.1" departLane="0" departPos="27.754588278297284" departSpeed="0.00020377446" id="318" type="passenger">
		<route edges="78649 78027"/>
	</vehicle>
	<vehicle depart="0.1" departLane="0" departPos="27.854871165650493" departSpeed="10.102451" id="319" type="passenger">
		<route edges="78024 78027"/>
	</vehicle>
	<vehicle depart="0.1" departLane="0" departPos="11.73111644752424" departSpeed="2.3077273" id="325" type="passenger">
		<route edges=":34_2 78024"/>
	</vehicle>
	<vehicle depart="0.1" departLane="0" departPos="31.000073890025224" departSpeed="0.0" id="340" type="passenger">
		<route edges="78023 78020"/>
	</vehicle>
	<vehicle depart="0.1" departLane="0" departPos="2.5" departSpeed="11.838031" id="348" type="passenger">
		<route edges="78023 78020"/>
	</vehicle>
	<vehicle depart="0.1" departLane="0" departPos="17.644854467189376" departSpeed="0.0" id="30" type="truck">
		<route edges=":35_0 78023"/>
	</vehicle>
</routes>
