<!-- generated on Tue Feb  9 22:16:54 2021 by Eclipse SUMO netconvert Version 1.8.0
<configuration xmlns:xsi="http://www.w3.org/2001/XMLSchema-instance" xsi:noNamespaceSchemaLocation="http://sumo.dlr.de/xsd/netconvertConfiguration.xsd">

    <input>
        <node-files value="./converted_scenarios/scenario-factory/BEL_Nivelles-10_1_I-1-1/BEL_Nivelles-10_1_I-1-1.nod.xml"/>
        <edge-files value="./converted_scenarios/scenario-factory/BEL_Nivelles-10_1_I-1-1/BEL_Nivelles-10_1_I-1-1.edg.xml"/>
        <connection-files value="./converted_scenarios/scenario-factory/BEL_Nivelles-10_1_I-1-1/BEL_Nivelles-10_1_I-1-1.con.xml"/>
        <tllogic-files value="./converted_scenarios/scenario-factory/BEL_Nivelles-10_1_I-1-1/BEL_Nivelles-10_1_I-1-1.tll.xml"/>
        <type-files value="/home/zen/commonroad-interactive-benchmarks/install/commonroad-map-tool/crmapconverter/sumo_map/templates/DEU.typ.xml"/>
    </input>

    <output>
        <output-file value="./converted_scenarios/scenario-factory/BEL_Nivelles-10_1_I-1-1/BEL_Nivelles-10_1_I-1-1.net.xml"/>
    </output>

    <processing>
        <geometry.remove.keep-edges.explicit value="true"/>
        <geometry.avoid-overlap value="true"/>
        <offset.disable-normalization value="true"/>
    </processing>

    <junctions>
        <no-turnarounds value="true"/>
        <junctions.internal-link-detail value="20"/>
    </junctions>

    <report>
        <aggregate-warnings value="5"/>
    </report>

    <random_number>
        <seed value="1234"/>
    </random_number>

</configuration>
--><net xmlns:xsi="http://www.w3.org/2001/XMLSchema-instance" version="1.6" junctionCornerDetail="5" junctionLinkDetail="20" limitTurnSpeed="5.50" xsi:noNamespaceSchemaLocation="http://sumo.dlr.de/xsd/net_file.xsd">

    <location netOffset="0.00,0.00" convBoundary="137.78,-1093.51,322.59,-913.62" origBoundary="137.78,-1093.51,322.59,-913.62" projParameter="!"/>

    <type id="highway.bridleway" priority="1" speed="2.78" allow="pedestrian" oneway="1" width="2.00"/>
    <type id="highway.bus_guideway" priority="1" speed="27.78" allow="bus" oneway="1"/>
    <type id="highway.cycleway" priority="1" speed="8.33" allow="bicycle" oneway="0" width="1.00"/>
    <type id="highway.footway" priority="1" speed="2.78" allow="pedestrian" oneway="1" width="2.00"/>
    <type id="highway.ford" priority="1" speed="2.78" allow="army" oneway="0"/>
    <type id="highway.living_street" priority="2" speed="2.78" disallow="tram rail_urban rail rail_electric rail_fast ship" oneway="0"/>
    <type id="highway.motorway" priority="14" speed="39.44" allow="private emergency authority army vip passenger hov taxi bus coach delivery truck trailer motorcycle evehicle custom1 custom2" oneway="1"/>
    <type id="highway.motorway_link" priority="9" speed="22.22" allow="private emergency authority army vip passenger hov taxi bus coach delivery truck trailer motorcycle evehicle custom1 custom2" oneway="1"/>
    <type id="highway.path" priority="1" speed="2.78" allow="pedestrian bicycle" oneway="0" width="2.00"/>
    <type id="highway.pedestrian" priority="1" speed="2.78" allow="pedestrian" oneway="1" width="2.00"/>
    <type id="highway.primary" priority="12" speed="27.78" disallow="pedestrian tram rail_urban rail rail_electric rail_fast ship" oneway="0"/>
    <type id="highway.primary_link" priority="7" speed="22.22" disallow="pedestrian tram rail_urban rail rail_electric rail_fast ship" oneway="0"/>
    <type id="highway.raceway" priority="15" speed="83.33" allow="vip" oneway="0"/>
    <type id="highway.residential" priority="3" speed="13.89" disallow="pedestrian tram rail_urban rail rail_electric rail_fast ship" oneway="0"/>
    <type id="highway.secondary" priority="11" speed="27.78" disallow="pedestrian tram rail_urban rail rail_electric rail_fast ship" oneway="0"/>
    <type id="highway.secondary_link" priority="6" speed="22.22" disallow="pedestrian tram rail_urban rail rail_electric rail_fast ship" oneway="0"/>
    <type id="highway.service" priority="1" speed="5.56" allow="pedestrian delivery bicycle" oneway="0"/>
    <type id="highway.stairs" priority="1" speed="1.39" allow="pedestrian" oneway="1" width="2.00"/>
    <type id="highway.step" priority="1" speed="1.39" allow="pedestrian" oneway="1" width="2.00"/>
    <type id="highway.steps" priority="1" speed="1.39" allow="pedestrian" oneway="1" width="2.00"/>
    <type id="highway.tertiary" priority="10" speed="22.22" disallow="pedestrian tram rail_urban rail rail_electric rail_fast ship" oneway="0"/>
    <type id="highway.tertiary_link" priority="5" speed="22.22" disallow="pedestrian tram rail_urban rail rail_electric rail_fast ship" oneway="0"/>
    <type id="highway.track" priority="1" speed="5.56" allow="pedestrian motorcycle moped bicycle" oneway="0"/>
    <type id="highway.trunk" priority="13" speed="27.78" disallow="pedestrian bicycle tram rail_urban rail rail_electric rail_fast ship" oneway="0"/>
    <type id="highway.trunk_link" priority="8" speed="22.22" disallow="pedestrian bicycle tram rail_urban rail rail_electric rail_fast ship" oneway="0"/>
    <type id="highway.unclassified" priority="4" speed="13.89" disallow="pedestrian tram rail_urban rail rail_electric rail_fast ship" oneway="0"/>
    <type id="highway.unsurfaced" priority="1" speed="8.33" disallow="tram rail_urban rail rail_electric rail_fast ship" oneway="0"/>
    <type id="railway.highspeed" priority="21" speed="69.44" allow="rail_fast" oneway="1"/>
    <type id="railway.light_rail" priority="19" speed="27.78" allow="rail_urban" oneway="1"/>
    <type id="railway.preserved" priority="16" speed="27.78" allow="rail" oneway="1"/>
    <type id="railway.rail" priority="20" speed="44.44" allow="rail" oneway="1"/>
    <type id="railway.subway" priority="18" speed="27.78" allow="rail_urban" oneway="1"/>
    <type id="railway.tram" priority="17" speed="13.89" allow="tram" oneway="1"/>

    <edge id=":17_0" function="internal">
        <lane id=":17_0_0" index="0" disallow="pedestrian tram rail_urban rail rail_electric rail_fast ship" speed="20.53" length="39.87" width="3.50" shape="252.85,-988.71 251.83,-988.62 246.66,-988.03 241.55,-987.16 236.54,-985.94 232.64,-984.69 228.85,-983.14 226.14,-981.78 223.54,-980.22 221.09,-978.46 218.82,-976.49 216.74,-974.29"/>
    </edge>
    <edge id=":17_1" function="internal">
        <lane id=":17_1_0" index="0" disallow="pedestrian tram rail_urban rail rail_electric rail_fast ship" speed="36.11" length="72.06" width="3.50" shape="252.85,-988.71 251.75,-988.63 247.47,-988.60 243.18,-988.98 238.95,-989.73 234.82,-990.82 230.78,-992.18 225.89,-994.18 220.20,-996.87 208.25,-1003.14 200.90,-1006.82 195.29,-1009.27 190.53,-1011.00 185.66,-1012.39"/>
    </edge>
    <edge id=":17_2" function="internal">
        <lane id=":17_2_0" index="0" disallow="pedestrian tram rail_urban rail rail_electric rail_fast ship" speed="22.12" length="70.38" width="3.50" shape="252.85,-988.70 250.46,-988.73 248.14,-989.11 245.91,-989.77 242.82,-991.10 239.92,-992.72 237.19,-994.55 233.75,-997.20 229.71,-1000.75 225.13,-1005.25 220.07,-1010.74 214.57,-1017.23 208.65,-1024.73 201.70,-1034.11"/>
    </edge>
    <edge id=":17_3" function="internal">
        <lane id=":17_3_0" index="0" disallow="pedestrian tram rail_urban rail rail_electric rail_fast ship" speed="21.55" length="66.81" width="3.50" shape="204.55,-1036.13 211.28,-1027.04 216.99,-1019.77 222.29,-1013.47 227.13,-1008.15 231.49,-1003.79 235.32,-1000.35 238.54,-997.80 241.07,-996.05 243.73,-994.49 246.54,-993.22 248.50,-992.59 250.52,-992.23 252.57,-992.19"/>
    </edge>
    <edge id=":17_4" function="internal">
        <lane id=":17_4_0" index="0" disallow="pedestrian tram rail_urban rail rail_electric rail_fast ship" speed="19.17" length="67.93" width="3.50" shape="204.55,-1036.13 209.04,-1029.60 212.62,-1023.84 215.90,-1017.89 218.33,-1012.78 220.02,-1008.58 221.43,-1004.27 222.49,-999.87 223.01,-996.52 223.25,-993.13 223.15,-989.74 222.67,-986.38 221.80,-983.10 220.50,-979.96 218.81,-977.02 216.74,-974.29"/>
    </edge>
    <edge id=":17_5" function="internal">
        <lane id=":17_5_0" index="0" disallow="pedestrian tram rail_urban rail rail_electric rail_fast ship" speed="36.11" length="71.05" width="3.50" shape="186.41,-1015.81 191.45,-1014.38 196.28,-1012.61 201.93,-1010.13 209.27,-1006.43 221.10,-1000.19 226.67,-997.53 231.42,-995.57 235.32,-994.24 239.29,-993.19 243.34,-992.46 247.44,-992.10 251.55,-992.13 252.57,-992.19"/>
    </edge>
    <edge id=":17_6" function="internal">
        <lane id=":17_6_0" index="0" disallow="pedestrian tram rail_urban rail rail_electric rail_fast ship" speed="18.50" length="63.31" width="3.50" shape="214.08,-976.55 215.94,-979.02 217.44,-981.67 218.56,-984.50 219.31,-987.46 219.69,-990.51 219.72,-993.61 219.46,-996.72 218.94,-999.81 217.89,-1003.91 216.53,-1007.94 214.90,-1011.88 212.57,-1016.71 209.43,-1022.36 206.00,-1027.85 201.70,-1034.11"/>
    </edge>
    <edge id=":17_7" function="internal">
        <lane id=":17_7_0" index="0" disallow="pedestrian tram rail_urban rail rail_electric rail_fast ship" speed="21.25" length="42.63" width="3.50" shape="214.07,-976.55 216.35,-978.97 218.82,-981.12 221.47,-983.05 224.27,-984.75 227.19,-986.23 231.23,-987.90 235.38,-989.25 240.68,-990.55 246.06,-991.48 251.49,-992.10 252.57,-992.19"/>
    </edge>

    <edge id="6816" from="14" to="17" priority="3" type="highway.residential" spreadType="center" length="49.14" shape="138.48,-1026.23 214.82,-1005.45">
        <lane id="6816_0" index="0" disallow="pedestrian tram rail_urban rail rail_electric rail_fast ship" speed="36.11" length="49.14" width="3.50" customShape="1" shape="138.48,-1026.23 150.89,-1023.59 169.19,-1019.57 186.50,-1015.79"/>
    </edge>
    <edge id="6817" from="17" to="12" priority="3" type="highway.residential" spreadType="center" length="49.00" shape="213.90,-1002.07 137.78,-1022.80">
        <lane id="6817_0" index="0" disallow="pedestrian tram rail_urban rail rail_electric rail_fast ship" speed="36.11" length="49.00" width="3.50" customShape="1" shape="185.66,-1012.39 168.42,-1016.16 150.15,-1020.17 137.78,-1022.80"/>
    </edge>
    <edge id="7279" from="17" to="8" priority="3" type="highway.residential" spreadType="center" length="70.01" shape="215.97,-1003.18 182.11,-913.62">
        <lane id="7279_0" index="0" disallow="pedestrian tram rail_urban rail rail_electric rail_fast ship" speed="36.11" length="70.01" width="3.50" customShape="1" shape="216.74,-974.29 216.11,-973.54 212.33,-968.80 209.45,-964.64 205.48,-958.19 201.33,-950.67 191.69,-931.76 185.93,-921.09 182.11,-913.62"/>
    </edge>
    <edge id="7280" from="1" to="17" priority="3" type="highway.residential" spreadType="center" length="70.00" shape="179.36,-915.94 212.70,-1004.42">
        <lane id="7280_0" index="0" disallow="pedestrian tram rail_urban rail rail_electric rail_fast ship" speed="36.11" length="70.00" width="3.50" customShape="1" shape="179.36,-915.94 183.12,-923.26 188.85,-933.90 198.47,-952.75 202.66,-960.29 206.67,-966.79 209.61,-971.01 213.43,-975.79 214.08,-976.55"/>
    </edge>
    <edge id="7282" from="16" to="17" priority="3" type="highway.residential" spreadType="center" length="70.00" shape="322.59,-994.23 214.17,-1002.03">
        <lane id="7282_0" index="0" disallow="pedestrian tram rail_urban rail rail_electric rail_fast ship" speed="36.11" length="70.00" width="3.50" customShape="1" shape="322.59,-994.23 288.68,-991.55 252.81,-988.70"/>
    </edge>
    <edge id="7283" from="17" to="10" priority="3" type="highway.residential" spreadType="center" length="70.01" shape="214.42,-1005.51 322.36,-997.73">
        <lane id="7283_0" index="0" disallow="pedestrian tram rail_urban rail rail_electric rail_fast ship" speed="36.11" length="70.01" width="3.50" customShape="1" shape="252.57,-992.19 288.41,-995.03 322.36,-997.73"/>
    </edge>
    <edge id="7416" from="15" to="17" priority="3" type="highway.residential" spreadType="center" length="70.10" shape="164.46,-1093.51 215.85,-1004.62">
        <lane id="7416_0" index="0" disallow="pedestrian tram rail_urban rail rail_electric rail_fast ship" speed="36.11" length="70.10" width="3.50" customShape="1" shape="164.46,-1093.51 167.61,-1089.14 180.61,-1070.11 194.95,-1050.20 200.66,-1041.97 204.61,-1036.05"/>
    </edge>
    <edge id="7417" from="17" to="5" priority="3" type="highway.residential" spreadType="center" length="70.00" shape="212.83,-1002.87 161.61,-1091.49">
        <lane id="7417_0" index="0" disallow="pedestrian tram rail_urban rail rail_electric rail_fast ship" speed="36.11" length="70.00" width="3.50" customShape="1" shape="201.70,-1034.11 197.79,-1039.96 192.09,-1048.17 177.74,-1068.11 164.73,-1087.15 161.61,-1091.49"/>
    </edge>

    <junction id="1" type="dead_end" x="179.36" y="-915.94" incLanes="" intLanes="" shape="180.92,-915.14 177.81,-916.74" rightOfWay="edgePriority"/>
    <junction id="10" type="dead_end" x="322.36" y="-997.73" incLanes="7283_0" intLanes="" shape="322.22,-999.47 322.49,-995.98" rightOfWay="edgePriority"/>
    <junction id="12" type="dead_end" x="137.78" y="-1022.80" incLanes="6817_0" intLanes="" shape="137.42,-1021.09 138.14,-1024.51" rightOfWay="edgePriority"/>
    <junction id="14" type="dead_end" x="138.48" y="-1026.23" incLanes="" intLanes="" shape="138.12,-1024.52 138.85,-1027.94" rightOfWay="edgePriority"/>
    <junction id="15" type="dead_end" x="164.46" y="-1093.51" incLanes="" intLanes="" shape="163.04,-1092.49 165.88,-1094.53" rightOfWay="edgePriority"/>
    <junction id="16" type="dead_end" x="322.59" y="-994.23" incLanes="" intLanes="" shape="322.45,-995.98 322.73,-992.49" rightOfWay="edgePriority"/>
    <junction id="17" type="priority" x="214.33" y="-1003.77" incLanes="7282_0 7416_0 6816_0 7280_0" intLanes=":17_0_0 :17_1_0 :17_2_0 :17_3_0 :17_4_0 :17_5_0 :17_6_0 :17_7_0" shape="252.99,-986.96 252.44,-993.94 246.50,-994.77 239.85,-998.14 232.48,-1004.05 224.39,-1012.50 215.58,-1023.49 206.06,-1037.02 200.24,-1033.14 202.23,-1028.50 202.07,-1024.31 200.09,-1020.84 196.66,-1018.36 192.11,-1017.16 186.78,-1017.52 185.29,-1010.68 196.48,-1007.73 206.19,-1003.90 213.55,-999.08 217.67,-993.17 217.69,-986.08 212.74,-977.68 218.08,-973.15 221.84,-976.83 226.42,-979.95 231.83,-982.53 238.06,-984.55 245.11,-986.03">
        <request index="0" response="00000000" foes="00010000" cont="0"/>
        <request index="1" response="00000000" foes="11010000" cont="0"/>
        <request index="2" response="00100000" foes="11110000" cont="0"/>
        <request index="3" response="00100000" foes="10100000" cont="0"/>
        <request index="4" response="00100111" foes="10100111" cont="0"/>
        <request index="5" response="00000000" foes="11011100" cont="0"/>
        <request index="6" response="00100110" foes="00100110" cont="0"/>
        <request index="7" response="00111110" foes="00111110" cont="0"/>
    </junction>
    <junction id="5" type="dead_end" x="161.61" y="-1091.49" incLanes="7417_0" intLanes="" shape="160.19,-1090.46 163.03,-1092.51" rightOfWay="edgePriority"/>
    <junction id="8" type="dead_end" x="182.11" y="-913.62" incLanes="7279_0" intLanes="" shape="183.67,-912.83 180.55,-914.42" rightOfWay="edgePriority"/>

    <connection from="6816" to="7283" fromLane="0" toLane="0" contPos="-4.00" shape="186.50,-1015.79 191.45,-1014.38 196.28,-1012.61 201.93,-1010.13 209.27,-1006.43 221.10,-1000.19 226.67,-997.53 231.42,-995.57 235.32,-994.24 239.29,-993.19 243.34,-992.46 247.44,-992.10 251.55,-992.13 252.57,-992.19" via=":17_5_0" dir="s" state="M"/>
    <connection from="7280" to="7417" fromLane="0" toLane="0" contPos="-4.00" shape="214.08,-976.55 215.94,-979.02 217.44,-981.67 218.56,-984.50 219.31,-987.46 219.69,-990.51 219.72,-993.61 219.46,-996.72 218.94,-999.81 217.89,-1003.91 216.53,-1007.94 214.90,-1011.88 212.57,-1016.71 209.43,-1022.36 206.00,-1027.85 201.70,-1034.11" via=":17_6_0" dir="R" state="m"/>
    <connection from="7280" to="7283" fromLane="0" toLane="0" contPos="-4.00" shape="214.08,-976.55 216.35,-978.97 218.82,-981.12 221.47,-983.05 224.27,-984.75 227.19,-986.23 231.23,-987.90 235.38,-989.25 240.68,-990.55 246.06,-991.48 251.49,-992.10 252.57,-992.19" via=":17_7_0" dir="l" state="m"/>
    <connection from="7282" to="7279" fromLane="0" toLane="0" contPos="-4.00" shape="252.81,-988.70 251.83,-988.62 246.66,-988.03 241.55,-987.16 236.54,-985.94 232.64,-984.69 228.85,-983.14 226.14,-981.78 223.54,-980.22 221.09,-978.46 218.82,-976.49 216.74,-974.29" via=":17_0_0" dir="r" state="M"/>
    <connection from="7282" to="6817" fromLane="0" toLane="0" contPos="-4.00" shape="252.81,-988.70 251.75,-988.63 247.47,-988.60 243.18,-988.98 238.95,-989.73 234.82,-990.82 230.78,-992.18 225.89,-994.18 220.20,-996.87 208.25,-1003.14 200.90,-1006.82 195.29,-1009.27 190.53,-1011.00 185.66,-1012.39" via=":17_1_0" dir="s" state="M"/>
    <connection from="7282" to="7417" fromLane="0" toLane="0" contPos="-4.00" shape="252.81,-988.70 250.46,-988.73 248.14,-989.11 245.91,-989.77 242.82,-991.10 239.92,-992.72 237.19,-994.55 233.75,-997.20 229.71,-1000.75 225.13,-1005.25 220.07,-1010.74 214.57,-1017.23 208.65,-1024.73 201.70,-1034.11" via=":17_2_0" dir="l" state="m"/>
    <connection from="7416" to="7283" fromLane="0" toLane="0" contPos="-4.00" shape="204.55,-1036.13 211.28,-1027.04 216.99,-1019.77 222.29,-1013.47 227.13,-1008.15 231.49,-1003.79 235.32,-1000.35 238.54,-997.80 241.07,-996.05 243.73,-994.49 246.54,-993.22 248.50,-992.59 250.52,-992.23 252.57,-992.19" via=":17_3_0" dir="r" state="m"/>
    <connection from="7416" to="7279" fromLane="0" toLane="0" contPos="-4.00" shape="204.55,-1036.13 209.04,-1029.60 212.62,-1023.84 215.90,-1017.89 218.33,-1012.78 220.02,-1008.58 221.43,-1004.27 222.49,-999.87 223.01,-996.52 223.25,-993.13 223.15,-989.74 222.67,-986.38 221.80,-983.10 220.50,-979.96 218.81,-977.02 216.74,-974.29" via=":17_4_0" dir="L" state="m"/>

    <connection from=":17_0" to="7279" fromLane="0" toLane="0" dir="r" state="M"/>
    <connection from=":17_1" to="6817" fromLane="0" toLane="0" dir="s" state="M"/>
    <connection from=":17_2" to="7417" fromLane="0" toLane="0" dir="l" state="M"/>
    <connection from=":17_3" to="7283" fromLane="0" toLane="0" dir="r" state="M"/>
    <connection from=":17_4" to="7279" fromLane="0" toLane="0" dir="L" state="M"/>
    <connection from=":17_5" to="7283" fromLane="0" toLane="0" dir="s" state="M"/>
    <connection from=":17_6" to="7417" fromLane="0" toLane="0" dir="R" state="M"/>
    <connection from=":17_7" to="7283" fromLane="0" toLane="0" dir="l" state="M"/>

</net>