<routes>
	<vehicle depart="0.1" departLane="0" departPos="12.797127680540273" departSpeed="0.3957704" id="315" type="bicycle">
		<route edges=":17_0 7279"/>
	</vehicle>
	<vehicle depart="0.1" departLane="0" departPos="40.370177498970094" departSpeed="0.5469796" id="318" type="bicycle">
		<route edges="7282 6817"/>
	</vehicle>
	<vehicle depart="0.1" departLane="0" departPos="69.89835304396124" departSpeed="0.0" id="33" type="passenger">
		<route edges="7280 7283"/>
	</vehicle>
	<vehicle depart="0.1" departLane="0" departPos="62.3981297694911" departSpeed="0.0" id="35" type="passenger">
		<route edges="7280 7283"/>
	</vehicle>
	<vehicle depart="0.1" departLane="0" departPos="52.937341700213956" departSpeed="0.6144123" id="316" type="passenger">
		<route edges="7282 6817"/>
	</vehicle>
	<vehicle depart="0.1" departLane="0" departPos="42.987253501023204" departSpeed="1.2781863" id="321" type="passenger">
		<route edges="7282 6817"/>
	</vehicle>
	<vehicle depart="0.1" departLane="0" departPos="31.81234629039186" departSpeed="0.75455343" id="325" type="passenger">
		<route edges="7282 6817"/>
	</vehicle>
	<vehicle depart="0.1" departLane="0" departPos="31.56569167848572" departSpeed="25.729578" id="338" type="passenger">
		<route edges="6816 7283"/>
	</vehicle>
	<vehicle depart="0.1" departLane="0" departPos="58.554671220187565" departSpeed="1.2400159" id="311" type="motorcycle">
		<route edges="7282 6817"/>
	</vehicle>
</routes>
