<routes>
	<vehicle depart="0.1" departLane="0" departPos="15.305952618136839" departSpeed="11.267817" id="348" type="bus">
		<route edges=":33_1 9624"/>
	</vehicle>
	<vehicle depart="0.1" departLane="0" departPos="69.93347422978454" departSpeed="0.0" id="39" type="passenger">
		<route edges="9630 9628"/>
	</vehicle>
	<vehicle depart="0.1" departLane="0" departPos="45.88061055779225" departSpeed="0.79893195" id="311" type="passenger">
		<route edges="9625 9628"/>
	</vehicle>
	<vehicle depart="0.1" departLane="0" departPos="62.466554436581475" departSpeed="0.0" id="316" type="passenger">
		<route edges="9630 9628"/>
	</vehicle>
	<vehicle depart="0.1" departLane="0" departPos="38.389273308078046" departSpeed="0.24232738" id="319" type="passenger">
		<route edges="9625 9628"/>
	</vehicle>
	<vehicle depart="0.1" departLane="0" departPos="35.8302104803487" departSpeed="0.26611405" id="325" type="passenger">
		<route edges=":33_5 9628"/>
	</vehicle>
	<vehicle depart="0.1" departLane="0" departPos="18.62175276083243" departSpeed="1.4431074" id="333" type="passenger">
		<route edges="9625 9628"/>
	</vehicle>
	<vehicle depart="0.1" departLane="0" departPos="12.082591936249543" departSpeed="0.9887142" id="341" type="passenger">
		<route edges="9625 9628"/>
	</vehicle>
	<vehicle depart="0.1" departLane="0" departPos="29.872823241384534" departSpeed="0.68102666" id="320" type="motorcycle">
		<route edges="9625 9628"/>
	</vehicle>
</routes>
