<!-- generated on Tue Feb  9 22:15:54 2021 by Eclipse SUMO netconvert Version 1.8.0
<configuration xmlns:xsi="http://www.w3.org/2001/XMLSchema-instance" xsi:noNamespaceSchemaLocation="http://sumo.dlr.de/xsd/netconvertConfiguration.xsd">

    <input>
        <node-files value="./converted_scenarios/scenario-factory/DEU_Muehlhausen-14_2_I-1-1/DEU_Muehlhausen-14_2_I-1-1.nod.xml"/>
        <edge-files value="./converted_scenarios/scenario-factory/DEU_Muehlhausen-14_2_I-1-1/DEU_Muehlhausen-14_2_I-1-1.edg.xml"/>
        <connection-files value="./converted_scenarios/scenario-factory/DEU_Muehlhausen-14_2_I-1-1/DEU_Muehlhausen-14_2_I-1-1.con.xml"/>
        <tllogic-files value="./converted_scenarios/scenario-factory/DEU_Muehlhausen-14_2_I-1-1/DEU_Muehlhausen-14_2_I-1-1.tll.xml"/>
        <type-files value="/home/zen/commonroad-interactive-benchmarks/install/commonroad-map-tool/crmapconverter/sumo_map/templates/DEU.typ.xml"/>
    </input>

    <output>
        <output-file value="./converted_scenarios/scenario-factory/DEU_Muehlhausen-14_2_I-1-1/DEU_Muehlhausen-14_2_I-1-1.net.xml"/>
    </output>

    <processing>
        <geometry.remove.keep-edges.explicit value="true"/>
        <geometry.avoid-overlap value="true"/>
        <offset.disable-normalization value="true"/>
    </processing>

    <junctions>
        <no-turnarounds value="true"/>
        <junctions.internal-link-detail value="20"/>
    </junctions>

    <report>
        <aggregate-warnings value="5"/>
    </report>

    <random_number>
        <seed value="1234"/>
    </random_number>

</configuration>
--><net xmlns:xsi="http://www.w3.org/2001/XMLSchema-instance" version="1.6" junctionCornerDetail="5" junctionLinkDetail="20" limitTurnSpeed="5.50" xsi:noNamespaceSchemaLocation="http://sumo.dlr.de/xsd/net_file.xsd">

    <location netOffset="0.00,0.00" convBoundary="-253.23,63.63,30.54,262.08" origBoundary="-253.23,63.63,30.54,262.08" projParameter="!"/>

    <type id="highway.bridleway" priority="1" speed="2.78" allow="pedestrian" oneway="1" width="2.00"/>
    <type id="highway.bus_guideway" priority="1" speed="27.78" allow="bus" oneway="1"/>
    <type id="highway.cycleway" priority="1" speed="8.33" allow="bicycle" oneway="0" width="1.00"/>
    <type id="highway.footway" priority="1" speed="2.78" allow="pedestrian" oneway="1" width="2.00"/>
    <type id="highway.ford" priority="1" speed="2.78" allow="army" oneway="0"/>
    <type id="highway.living_street" priority="2" speed="2.78" disallow="tram rail_urban rail rail_electric rail_fast ship" oneway="0"/>
    <type id="highway.motorway" priority="14" speed="39.44" allow="private emergency authority army vip passenger hov taxi bus coach delivery truck trailer motorcycle evehicle custom1 custom2" oneway="1"/>
    <type id="highway.motorway_link" priority="9" speed="22.22" allow="private emergency authority army vip passenger hov taxi bus coach delivery truck trailer motorcycle evehicle custom1 custom2" oneway="1"/>
    <type id="highway.path" priority="1" speed="2.78" allow="pedestrian bicycle" oneway="0" width="2.00"/>
    <type id="highway.pedestrian" priority="1" speed="2.78" allow="pedestrian" oneway="1" width="2.00"/>
    <type id="highway.primary" priority="12" speed="27.78" disallow="pedestrian tram rail_urban rail rail_electric rail_fast ship" oneway="0"/>
    <type id="highway.primary_link" priority="7" speed="22.22" disallow="pedestrian tram rail_urban rail rail_electric rail_fast ship" oneway="0"/>
    <type id="highway.raceway" priority="15" speed="83.33" allow="vip" oneway="0"/>
    <type id="highway.residential" priority="3" speed="13.89" disallow="pedestrian tram rail_urban rail rail_electric rail_fast ship" oneway="0"/>
    <type id="highway.secondary" priority="11" speed="27.78" disallow="pedestrian tram rail_urban rail rail_electric rail_fast ship" oneway="0"/>
    <type id="highway.secondary_link" priority="6" speed="22.22" disallow="pedestrian tram rail_urban rail rail_electric rail_fast ship" oneway="0"/>
    <type id="highway.service" priority="1" speed="5.56" allow="pedestrian delivery bicycle" oneway="0"/>
    <type id="highway.stairs" priority="1" speed="1.39" allow="pedestrian" oneway="1" width="2.00"/>
    <type id="highway.step" priority="1" speed="1.39" allow="pedestrian" oneway="1" width="2.00"/>
    <type id="highway.steps" priority="1" speed="1.39" allow="pedestrian" oneway="1" width="2.00"/>
    <type id="highway.tertiary" priority="10" speed="22.22" disallow="pedestrian tram rail_urban rail rail_electric rail_fast ship" oneway="0"/>
    <type id="highway.tertiary_link" priority="5" speed="22.22" disallow="pedestrian tram rail_urban rail rail_electric rail_fast ship" oneway="0"/>
    <type id="highway.track" priority="1" speed="5.56" allow="pedestrian motorcycle moped bicycle" oneway="0"/>
    <type id="highway.trunk" priority="13" speed="27.78" disallow="pedestrian bicycle tram rail_urban rail rail_electric rail_fast ship" oneway="0"/>
    <type id="highway.trunk_link" priority="8" speed="22.22" disallow="pedestrian bicycle tram rail_urban rail rail_electric rail_fast ship" oneway="0"/>
    <type id="highway.unclassified" priority="4" speed="13.89" disallow="pedestrian tram rail_urban rail rail_electric rail_fast ship" oneway="0"/>
    <type id="highway.unsurfaced" priority="1" speed="8.33" disallow="tram rail_urban rail rail_electric rail_fast ship" oneway="0"/>
    <type id="railway.highspeed" priority="21" speed="69.44" allow="rail_fast" oneway="1"/>
    <type id="railway.light_rail" priority="19" speed="27.78" allow="rail_urban" oneway="1"/>
    <type id="railway.preserved" priority="16" speed="27.78" allow="rail" oneway="1"/>
    <type id="railway.rail" priority="20" speed="44.44" allow="rail" oneway="1"/>
    <type id="railway.subway" priority="18" speed="27.78" allow="rail_urban" oneway="1"/>
    <type id="railway.tram" priority="17" speed="13.89" allow="tram" oneway="1"/>

    <edge id=":33_0" function="internal">
        <lane id=":33_0_0" index="0" disallow="pedestrian tram rail_urban rail rail_electric rail_fast ship" speed="13.12" length="31.94" width="3.50" shape="-159.51,169.20 -161.60,169.62 -163.63,170.24 -165.59,171.08 -167.44,172.13 -169.15,173.40 -170.69,174.87 -172.05,176.51 -173.24,178.28 -174.24,180.16 -175.45,183.11 -176.36,186.17 -177.00,189.30 -177.44,192.47"/>
    </edge>
    <edge id=":33_1" function="internal">
        <lane id=":33_1_0" index="0" disallow="pedestrian tram rail_urban rail rail_electric rail_fast ship" speed="36.11" length="40.08" width="3.50" shape="-159.51,169.20 -179.30,172.30 -199.11,175.41"/>
    </edge>
    <edge id=":33_2" function="internal">
        <lane id=":33_2_0" index="0" disallow="pedestrian tram rail_urban rail rail_electric rail_fast ship" speed="36.11" length="40.05" width="3.50" shape="-199.64,171.95 -179.84,168.85 -160.07,165.75"/>
    </edge>
    <edge id=":33_3" function="internal">
        <lane id=":33_3_0" index="0" disallow="pedestrian tram rail_urban rail rail_electric rail_fast ship" speed="11.66" length="37.38" width="3.50" shape="-199.64,171.95 -195.35,171.46 -192.47,171.41 -189.61,171.64 -188.19,171.89 -186.80,172.25 -185.45,172.73 -184.15,173.34 -182.92,174.10 -181.80,174.99 -180.79,176.02 -179.92,177.16 -179.19,178.40 -178.58,179.70 -178.11,181.06 -177.75,182.45 -177.31,185.29 -177.19,188.16 -177.31,191.04 -177.44,192.47"/>
    </edge>
    <edge id=":33_4" function="internal">
        <lane id=":33_4_0" index="0" disallow="pedestrian tram rail_urban rail rail_electric rail_fast ship" speed="10.62" length="30.76" width="3.50" shape="-180.92,192.10 -180.80,190.87 -180.70,188.38 -180.81,185.94 -181.18,183.54 -181.47,182.44 -181.85,181.35 -182.32,180.32 -182.89,179.37 -183.56,178.50 -184.32,177.72 -185.18,177.05 -186.12,176.47 -187.13,175.99 -188.21,175.62 -189.34,175.33 -190.48,175.13 -192.91,174.93 -195.35,174.98 -199.11,175.41"/>
    </edge>
    <edge id=":33_5" function="internal">
        <lane id=":33_5_0" index="0" disallow="pedestrian tram rail_urban rail rail_electric rail_fast ship" speed="14.01" length="36.53" width="3.50" shape="-180.92,192.10 -180.43,188.59 -179.70,185.10 -178.67,181.66 -177.27,178.33 -176.09,176.18 -174.70,174.14 -173.09,172.26 -171.26,170.57 -169.25,169.10 -167.08,167.89 -164.80,166.93 -162.44,166.23 -160.07,165.75"/>
    </edge>
    <edge id=":34_0" function="internal">
        <lane id=":34_0_0" index="0" disallow="pedestrian tram rail_urban rail rail_electric rail_fast ship" speed="36.11" length="39.20" width="3.50" shape="-38.61,150.87 -57.99,153.80 -77.37,156.72"/>
    </edge>
    <edge id=":34_1" function="internal">
        <lane id=":34_1_0" index="0" disallow="pedestrian tram rail_urban rail rail_electric rail_fast ship" speed="12.20" length="34.39" width="3.50" shape="-38.61,150.87 -41.15,151.18 -43.72,151.30 -46.32,151.20 -48.93,150.80 -51.48,150.07 -52.76,149.53 -53.97,148.91 -55.13,148.17 -56.22,147.34 -57.22,146.41 -58.14,145.40 -58.97,144.33 -59.73,143.18 -60.93,140.85 -61.85,138.39 -62.52,135.90 -62.99,133.36"/>
    </edge>
    <edge id=":34_2" function="internal">
        <lane id=":34_2_0" index="0" disallow="pedestrian tram rail_urban rail rail_electric rail_fast ship" speed="11.19" length="28.78" width="3.50" shape="-59.53,132.85 -59.13,135.04 -58.55,137.18 -57.78,139.25 -56.76,141.21 -56.15,142.13 -55.47,143.01 -54.72,143.82 -53.90,144.57 -53.02,145.24 -52.09,145.83 -51.10,146.34 -50.08,146.76 -47.96,147.37 -45.77,147.70 -43.56,147.79 -41.35,147.68 -39.15,147.41"/>
    </edge>
    <edge id=":34_3" function="internal">
        <lane id=":34_3_0" index="0" disallow="pedestrian tram rail_urban rail rail_electric rail_fast ship" speed="12.17" length="34.20" width="3.50" shape="-59.53,132.85 -59.16,136.79 -59.18,139.42 -59.47,142.03 -60.09,144.58 -60.54,145.82 -61.08,147.02 -61.73,148.16 -62.47,149.25 -63.31,150.26 -64.23,151.20 -65.23,152.06 -67.40,153.53 -69.76,154.70 -72.23,155.59 -74.78,156.25 -77.37,156.72"/>
    </edge>
    <edge id=":34_4" function="internal">
        <lane id=":34_4_0" index="0" disallow="pedestrian tram rail_urban rail rail_electric rail_fast ship" speed="11.17" length="28.63" width="3.50" shape="-77.90,153.26 -75.62,152.85 -73.43,152.28 -71.33,151.53 -69.36,150.56 -67.55,149.33 -66.77,148.66 -66.03,147.90 -65.36,147.09 -64.77,146.22 -64.25,145.30 -63.81,144.34 -63.45,143.36 -62.93,141.22 -62.68,139.02 -62.66,136.79 -62.99,133.36"/>
    </edge>
    <edge id=":34_5" function="internal">
        <lane id=":34_5_0" index="0" disallow="pedestrian tram rail_urban rail rail_electric rail_fast ship" speed="36.11" length="39.19" width="3.50" shape="-77.90,153.26 -58.51,150.34 -39.15,147.41"/>
    </edge>
    <edge id=":35_0" function="internal">
        <lane id=":35_0_0" index="0" disallow="pedestrian tram rail_urban rail rail_electric rail_fast ship" speed="12.07" length="31.47" width="3.50" shape="-104.28,179.93 -104.57,178.87 -105.65,175.66 -106.53,173.65 -107.59,171.75 -108.82,169.98 -110.24,168.40 -111.84,167.02 -113.61,165.89 -115.53,165.01 -117.57,164.38 -119.69,164.00 -121.86,163.84 -124.05,163.87 -127.39,164.22"/>
    </edge>
    <edge id=":35_1" function="internal">
        <lane id=":35_1_0" index="0" disallow="pedestrian tram rail_urban rail rail_electric rail_fast ship" speed="36.11" length="40.44" width="3.50" shape="-104.28,179.93 -109.47,158.77 -112.17,146.62 -113.30,140.52"/>
    </edge>
    <edge id=":35_2" function="internal">
        <lane id=":35_2_0" index="0" disallow="pedestrian tram rail_urban rail rail_electric rail_fast ship" speed="12.01" length="35.41" width="3.50" shape="-104.28,179.93 -105.09,175.92 -105.36,173.21 -105.36,170.49 -105.02,167.79 -104.69,166.46 -104.25,165.17 -103.70,163.93 -103.02,162.75 -102.23,161.64 -101.34,160.61 -100.35,159.68 -99.28,158.84 -98.14,158.09 -95.72,156.84 -93.16,155.90 -90.53,155.21 -87.85,154.72"/>
    </edge>
    <edge id=":35_3" function="internal">
        <lane id=":35_3_0" index="0" disallow="pedestrian tram rail_urban rail rail_electric rail_fast ship" speed="10.99" length="29.47" width="3.50" shape="-87.33,158.18 -89.66,158.61 -91.92,159.20 -94.08,159.99 -96.11,161.04 -97.01,161.63 -97.86,162.31 -98.65,163.06 -99.35,163.86 -99.97,164.74 -100.50,165.67 -100.94,166.65 -101.29,167.68 -101.54,168.72 -101.83,170.98 -101.83,173.27 -101.60,175.57 -100.88,179.10"/>
    </edge>
    <edge id=":35_4" function="internal">
        <lane id=":35_4_0" index="0" disallow="pedestrian tram rail_urban rail rail_electric rail_fast ship" speed="36.11" length="40.51" width="3.50" shape="-87.33,158.18 -107.36,161.20 -127.39,164.22"/>
    </edge>
    <edge id=":35_5" function="internal">
        <lane id=":35_5_0" index="0" disallow="pedestrian tram rail_urban rail rail_electric rail_fast ship" speed="12.50" length="35.87" width="3.50" shape="-87.33,158.18 -88.59,158.35 -92.26,158.62 -94.78,158.58 -97.31,158.31 -99.82,157.78 -102.28,156.91 -104.58,155.71 -105.70,154.95 -106.73,154.11 -107.71,153.17 -109.36,151.16 -110.71,148.94 -111.75,146.59 -112.53,144.16 -113.30,140.52"/>
    </edge>
    <edge id=":35_6" function="internal">
        <lane id=":35_6_0" index="0" disallow="pedestrian tram rail_urban rail rail_electric rail_fast ship" speed="11.53" length="30.32" width="3.50" shape="-109.84,139.97 -109.17,143.15 -108.50,145.21 -107.62,147.19 -106.49,149.03 -105.11,150.70 -104.32,151.44 -103.47,152.12 -102.58,152.72 -100.65,153.71 -98.60,154.42 -96.48,154.86 -94.33,155.08 -92.16,155.11 -88.92,154.87 -87.85,154.72"/>
    </edge>
    <edge id=":35_7" function="internal">
        <lane id=":35_7_0" index="0" disallow="pedestrian tram rail_urban rail rail_electric rail_fast ship" speed="36.11" length="40.15" width="3.50" shape="-109.84,139.97 -108.73,145.98 -106.05,158.03 -100.88,179.10"/>
    </edge>
    <edge id=":35_8" function="internal">
        <lane id=":35_8_0" index="0" disallow="pedestrian tram rail_urban rail rail_electric rail_fast ship" speed="12.20" length="34.22" width="3.50" shape="-109.84,139.97 -109.54,142.50 -109.43,145.06 -109.55,147.66 -109.97,150.26 -110.73,152.78 -111.27,154.05 -111.91,155.26 -112.65,156.40 -113.49,157.47 -114.42,158.47 -115.43,159.38 -116.52,160.21 -118.77,161.57 -121.17,162.64 -123.65,163.43 -127.39,164.22"/>
    </edge>
    <edge id=":35_9" function="internal">
        <lane id=":35_9_0" index="0" disallow="pedestrian tram rail_urban rail rail_electric rail_fast ship" speed="11.19" length="28.62" width="3.50" shape="-127.92,160.76 -124.69,160.08 -122.59,159.41 -120.58,158.51 -118.69,157.37 -117.82,156.70 -117.00,155.96 -116.25,155.16 -115.57,154.29 -114.97,153.36 -114.46,152.39 -114.02,151.37 -113.39,149.26 -113.05,147.09 -112.94,144.89 -113.04,142.68 -113.30,140.52"/>
    </edge>
    <edge id=":35_10" function="internal">
        <lane id=":35_10_0" index="0" disallow="pedestrian tram rail_urban rail rail_electric rail_fast ship" speed="36.11" length="40.52" width="3.50" shape="-127.92,160.76 -107.89,157.74 -87.85,154.72"/>
    </edge>
    <edge id=":35_11" function="internal">
        <lane id=":35_11_0" index="0" disallow="pedestrian tram rail_urban rail rail_electric rail_fast ship" speed="13.00" length="36.72" width="3.50" shape="-127.92,160.76 -124.15,160.36 -121.62,160.33 -119.09,160.52 -116.60,160.97 -114.19,161.71 -111.88,162.76 -109.75,164.12 -107.83,165.76 -106.14,167.65 -104.69,169.72 -103.46,171.93 -102.43,174.25 -101.22,177.84 -100.88,179.10"/>
    </edge>

    <edge id="9624" from="33" to="26" priority="3" type="highway.residential" spreadType="center" length="54.30" shape="-179.36,179.56 -253.06,181.27">
        <lane id="9624_0" index="0" disallow="pedestrian tram rail_urban rail rail_electric rail_fast ship" speed="36.11" length="54.30" width="3.50" customShape="1" shape="-199.11,175.41 -213.63,177.63 -226.22,179.22 -237.84,180.31 -253.06,181.27"/>
    </edge>
    <edge id="9625" from="32" to="33" priority="3" type="highway.residential" spreadType="center" length="53.95" shape="-253.23,177.77 -179.44,176.06">
        <lane id="9625_0" index="0" disallow="pedestrian tram rail_urban rail rail_electric rail_fast ship" speed="36.11" length="53.95" width="3.50" customShape="1" shape="-253.23,177.77 -238.13,176.82 -226.60,175.74 -214.10,174.16 -199.63,171.95"/>
    </edge>
    <edge id="9627" from="35" to="33" priority="3" type="highway.residential" spreadType="center" length="32.53" shape="-106.88,161.36 -179.02,179.51">
        <lane id="9627_0" index="0" disallow="pedestrian tram rail_urban rail rail_electric rail_fast ship" speed="36.11" length="32.53" width="3.50" customShape="1" shape="-127.39,164.22 -143.45,166.71 -159.54,169.21"/>
    </edge>
    <edge id="9628" from="33" to="35" priority="3" type="highway.residential" spreadType="center" length="32.53" shape="-179.87,176.12 -107.74,157.97">
        <lane id="9628_0" index="0" disallow="pedestrian tram rail_urban rail rail_electric rail_fast ship" speed="36.11" length="32.53" width="3.50" customShape="1" shape="-160.07,165.75 -143.99,163.25 -127.92,160.76"/>
    </edge>
    <edge id="9630" from="30" to="33" priority="3" type="highway.residential" spreadType="center" length="70.00" shape="-188.29,261.70 -181.19,177.63">
        <lane id="9630_0" index="0" disallow="pedestrian tram rail_urban rail rail_electric rail_fast ship" speed="36.11" length="70.00" width="3.50" customShape="1" shape="-188.29,261.70 -185.15,232.07 -180.91,192.09"/>
    </edge>
    <edge id="9631" from="33" to="25" priority="3" type="highway.residential" spreadType="center" length="70.00" shape="-177.70,177.92 -184.81,262.08">
        <lane id="9631_0" index="0" disallow="pedestrian tram rail_urban rail rail_electric rail_fast ship" speed="36.11" length="70.00" width="3.50" customShape="1" shape="-177.44,192.47 -181.67,232.44 -184.81,262.08"/>
    </edge>
    <edge id="9648" from="29" to="34" priority="3" type="highway.residential" spreadType="center" length="70.00" shape="-69.88,63.63 -57.53,145.52">
        <lane id="9648_0" index="0" disallow="pedestrian tram rail_urban rail rail_electric rail_fast ship" speed="36.11" length="70.00" width="3.50" customShape="1" shape="-69.88,63.63 -67.76,77.81 -59.53,132.86"/>
    </edge>
    <edge id="9649" from="34" to="22" priority="3" type="highway.residential" spreadType="center" length="70.00" shape="-60.99,146.05 -73.34,64.13">
        <lane id="9649_0" index="0" disallow="pedestrian tram rail_urban rail rail_electric rail_fast ship" speed="36.11" length="70.00" width="3.50" customShape="1" shape="-62.99,133.36 -71.22,78.33 -73.34,64.13"/>
    </edge>
    <edge id="9686" from="34" to="21" priority="3" type="highway.residential" spreadType="center" length="70.00" shape="-59.44,144.01 30.03,136.70">
        <lane id="9686_0" index="0" disallow="pedestrian tram rail_urban rail rail_electric rail_fast ship" speed="36.11" length="70.00" width="3.50" customShape="1" shape="-39.15,147.41 11.06,139.64 30.03,136.70"/>
    </edge>
    <edge id="9687" from="31" to="34" priority="3" type="highway.residential" spreadType="center" length="69.99" shape="30.54,140.16 -59.15,147.50">
        <lane id="9687_0" index="0" disallow="pedestrian tram rail_urban rail rail_electric rail_fast ship" speed="36.11" length="69.99" width="3.50" customShape="1" shape="30.54,140.16 11.59,143.09 -38.63,150.87"/>
    </edge>
    <edge id="9689" from="35" to="34" priority="3" type="highway.residential" spreadType="center" length="10.08" shape="-107.89,158.01 -59.75,144.07">
        <lane id="9689_0" index="0" disallow="pedestrian tram rail_urban rail rail_electric rail_fast ship" speed="36.11" length="10.08" width="3.50" customShape="1" shape="-87.85,154.72 -82.86,153.99 -77.88,153.26"/>
    </edge>
    <edge id="9690" from="34" to="35" priority="3" type="highway.residential" spreadType="center" length="10.08" shape="-58.77,147.43 -106.92,161.37">
        <lane id="9690_0" index="0" disallow="pedestrian tram rail_urban rail rail_electric rail_fast ship" speed="36.11" length="10.08" width="3.50" customShape="1" shape="-77.37,156.72 -82.35,157.45 -87.34,158.19"/>
    </edge>
    <edge id="9706" from="17" to="35" priority="3" type="highway.residential" spreadType="center" length="70.03" shape="-91.21,248.67 -109.07,159.99">
        <lane id="9706_0" index="0" disallow="pedestrian tram rail_urban rail rail_electric rail_fast ship" speed="36.11" length="70.03" width="3.50" customShape="1" shape="-91.21,248.67 -91.69,245.52 -95.20,223.70 -98.18,207.39 -101.15,193.12 -104.29,179.90"/>
    </edge>
    <edge id="9707" from="35" to="3" priority="3" type="highway.residential" spreadType="center" length="69.99" shape="-105.64,159.30 -87.79,247.83">
        <lane id="9707_0" index="0" disallow="pedestrian tram rail_urban rail rail_electric rail_fast ship" speed="36.11" length="69.99" width="3.50" customShape="1" shape="-100.88,179.10 -97.74,192.33 -94.75,206.66 -91.76,223.03 -88.24,244.91 -87.79,247.83"/>
    </edge>
    <edge id="9720" from="35" to="9" priority="3" type="highway.residential" spreadType="center" length="70.00" shape="-109.07,160.00 -123.93,71.33">
        <lane id="9720_0" index="0" disallow="pedestrian tram rail_urban rail rail_electric rail_fast ship" speed="36.11" length="70.00" width="3.50" customShape="1" shape="-113.30,140.52 -123.93,71.33"/>
    </edge>
    <edge id="9721" from="16" to="35" priority="3" type="highway.residential" spreadType="center" length="70.02" shape="-120.47,70.78 -105.62,159.42">
        <lane id="9721_0" index="0" disallow="pedestrian tram rail_urban rail rail_electric rail_fast ship" speed="36.11" length="70.02" width="3.50" customShape="1" shape="-120.47,70.78 -109.84,139.99"/>
    </edge>

    <junction id="16" type="dead_end" x="-120.47" y="70.78" incLanes="" intLanes="" shape="-122.20,71.05 -118.74,70.52" rightOfWay="edgePriority"/>
    <junction id="17" type="dead_end" x="-91.21" y="248.67" incLanes="" intLanes="" shape="-89.48,248.40 -92.94,248.93" rightOfWay="edgePriority"/>
    <junction id="21" type="dead_end" x="30.03" y="136.70" incLanes="9686_0" intLanes="" shape="29.76,134.97 30.30,138.43" rightOfWay="edgePriority"/>
    <junction id="22" type="dead_end" x="-73.34" y="64.13" incLanes="9649_0" intLanes="" shape="-75.07,64.39 -71.61,63.87" rightOfWay="edgePriority"/>
    <junction id="25" type="dead_end" x="-184.81" y="262.08" incLanes="9631_0" intLanes="" shape="-183.07,262.26 -186.55,261.89" rightOfWay="edgePriority"/>
    <junction id="26" type="dead_end" x="-253.06" y="181.27" incLanes="9624_0" intLanes="" shape="-252.95,183.01 -253.17,179.52" rightOfWay="edgePriority"/>
    <junction id="29" type="dead_end" x="-69.88" y="63.63" incLanes="" intLanes="" shape="-71.61,63.89 -68.15,63.37" rightOfWay="edgePriority"/>
    <junction id="3" type="dead_end" x="-87.79" y="247.83" incLanes="9707_0" intLanes="" shape="-86.06,247.57 -89.52,248.10" rightOfWay="edgePriority"/>
    <junction id="30" type="dead_end" x="-188.29" y="261.70" incLanes="" intLanes="" shape="-186.55,261.88 -190.03,261.52" rightOfWay="edgePriority"/>
    <junction id="31" type="dead_end" x="30.54" y="140.16" incLanes="" intLanes="" shape="30.28,138.43 30.81,141.89" rightOfWay="edgePriority"/>
    <junction id="32" type="dead_end" x="-253.23" y="177.77" incLanes="" intLanes="" shape="-253.12,179.52 -253.34,176.02" rightOfWay="edgePriority"/>
    <junction id="33" type="priority" x="-179.45" y="177.81" incLanes="9627_0 9625_0 9630_0" intLanes=":33_0_0 :33_1_0 :33_2_0 :33_3_0 :33_4_0 :33_5_0" shape="-159.27,170.94 -160.34,164.02 -199.90,170.22 -198.84,177.14 -193.38,176.79 -189.02,177.56 -185.77,179.46 -183.63,182.48 -182.59,186.63 -182.65,191.91 -175.70,192.65 -174.67,186.63 -172.95,181.58 -170.56,177.48 -167.48,174.34 -163.71,172.16">
        <request index="0" response="000000" foes="001000" cont="0"/>
        <request index="1" response="000000" foes="111000" cont="0"/>
        <request index="2" response="000000" foes="100000" cont="0"/>
        <request index="3" response="000011" foes="100011" cont="0"/>
        <request index="4" response="000010" foes="000010" cont="0"/>
        <request index="5" response="001110" foes="001110" cont="0"/>
    </junction>
    <junction id="34" type="priority" x="-59.26" y="145.75" incLanes="9687_0 9648_0 9689_0" intLanes=":34_0_0 :34_1_0 :34_2_0 :34_3_0 :34_4_0 :34_5_0" shape="-38.34,152.60 -39.41,145.68 -44.39,146.01 -48.59,145.33 -52.04,143.65 -54.72,140.97 -56.64,137.28 -57.80,132.59 -64.72,133.62 -64.45,138.45 -65.18,142.54 -66.91,145.90 -69.65,148.51 -73.39,150.39 -78.13,151.53 -77.11,158.45">
        <request index="0" response="000000" foes="001000" cont="0"/>
        <request index="1" response="110000" foes="111000" cont="0"/>
        <request index="2" response="100000" foes="100000" cont="0"/>
        <request index="3" response="100011" foes="100011" cont="0"/>
        <request index="4" response="000000" foes="000010" cont="0"/>
        <request index="5" response="000000" foes="001110" cont="0"/>
    </junction>
    <junction id="35" type="priority" x="-107.35" y="159.68" incLanes="9706_0 9690_0 9721_0 9628_0" intLanes=":35_0_0 :35_1_0 :35_2_0 :35_3_0 :35_4_0 :35_5_0 :35_6_0 :35_7_0 :35_8_0 :35_9_0 :35_10_0 :35_11_0" shape="-105.99,180.31 -99.18,178.69 -99.93,173.61 -99.57,169.30 -98.11,165.78 -95.54,163.05 -91.86,161.09 -87.08,159.92 -88.10,152.99 -93.54,153.34 -98.13,152.66 -101.89,150.96 -104.80,148.24 -106.88,144.49 -108.11,139.72 -115.02,140.78 -114.71,145.69 -115.41,149.85 -117.10,153.26 -119.80,155.93 -123.49,157.86 -128.19,159.03 -127.12,165.95 -121.79,165.61 -117.18,166.37 -113.29,168.21 -110.13,171.15 -107.70,175.19">
        <request index="0" response="000000000000" foes="000100010000" cont="0"/>
        <request index="1" response="000000000000" foes="111100110000" cont="0"/>
        <request index="2" response="000011000000" foes="110011110000" cont="0"/>
        <request index="3" response="000010000000" foes="100010000000" cont="0"/>
        <request index="4" response="000110000111" foes="100110000111" cont="0"/>
        <request index="5" response="011110000110" foes="011110000110" cont="0"/>
        <request index="6" response="000000000000" foes="010000000100" cont="0"/>
        <request index="7" response="000000000000" foes="110000111100" cont="0"/>
        <request index="8" response="000000000011" foes="110000110011" cont="0"/>
        <request index="9" response="000000000010" foes="000000100010" cont="0"/>
        <request index="10" response="000111000110" foes="000111100110" cont="0"/>
        <request index="11" response="000110011110" foes="000110011110" cont="0"/>
    </junction>
    <junction id="9" type="dead_end" x="-123.93" y="71.33" incLanes="9720_0" intLanes="" shape="-125.65,71.60 -122.20,71.07" rightOfWay="edgePriority"/>

    <connection from="9625" to="9628" fromLane="0" toLane="0" contPos="-4.00" shape="-199.63,171.95 -179.84,168.85 -160.07,165.75" via=":33_2_0" dir="s" state="M"/>
    <connection from="9625" to="9631" fromLane="0" toLane="0" contPos="-4.00" shape="-199.63,171.95 -195.35,171.46 -192.47,171.41 -189.61,171.64 -188.19,171.89 -186.80,172.25 -185.45,172.73 -184.15,173.34 -182.92,174.10 -181.80,174.99 -180.79,176.02 -179.92,177.16 -179.19,178.40 -178.58,179.70 -178.11,181.06 -177.75,182.45 -177.31,185.29 -177.19,188.16 -177.31,191.04 -177.44,192.47" via=":33_3_0" dir="l" state="m"/>
    <connection from="9627" to="9631" fromLane="0" toLane="0" contPos="-4.00" shape="-159.51,169.20 -161.60,169.62 -163.63,170.24 -165.59,171.08 -167.44,172.13 -169.15,173.40 -170.69,174.87 -172.05,176.51 -173.24,178.28 -174.24,180.16 -175.45,183.11 -176.36,186.17 -177.00,189.30 -177.44,192.47" via=":33_0_0" dir="r" state="M"/>
    <connection from="9627" to="9624" fromLane="0" toLane="0" contPos="-4.00" shape="-159.51,169.20 -179.30,172.30 -199.11,175.41" via=":33_1_0" dir="s" state="M"/>
    <connection from="9628" to="9720" fromLane="0" toLane="0" contPos="-4.00" shape="-127.92,160.76 -124.69,160.08 -122.59,159.41 -120.58,158.51 -118.69,157.37 -117.82,156.70 -117.00,155.96 -116.25,155.16 -115.57,154.29 -114.97,153.36 -114.46,152.39 -114.02,151.37 -113.39,149.26 -113.05,147.09 -112.94,144.89 -113.04,142.68 -113.30,140.52" via=":35_9_0" dir="r" state="m"/>
    <connection from="9628" to="9689" fromLane="0" toLane="0" contPos="-4.00" shape="-127.92,160.76 -107.89,157.74 -87.85,154.72" via=":35_10_0" dir="s" state="m"/>
    <connection from="9628" to="9707" fromLane="0" toLane="0" contPos="-4.00" shape="-127.92,160.76 -124.15,160.36 -121.62,160.33 -119.09,160.52 -116.60,160.97 -114.19,161.71 -111.88,162.76 -109.75,164.12 -107.83,165.76 -106.14,167.65 -104.69,169.72 -103.46,171.93 -102.43,174.25 -101.22,177.84 -100.88,179.10" via=":35_11_0" dir="l" state="m"/>
    <connection from="9630" to="9624" fromLane="0" toLane="0" contPos="-4.00" shape="-180.91,192.09 -180.80,190.87 -180.70,188.38 -180.81,185.94 -181.18,183.54 -181.47,182.44 -181.85,181.35 -182.32,180.32 -182.89,179.37 -183.56,178.50 -184.32,177.72 -185.18,177.05 -186.12,176.47 -187.13,175.99 -188.21,175.62 -189.34,175.33 -190.48,175.13 -192.91,174.93 -195.35,174.98 -199.11,175.41" via=":33_4_0" dir="r" state="m"/>
    <connection from="9630" to="9628" fromLane="0" toLane="0" contPos="-4.00" shape="-180.91,192.09 -180.43,188.59 -179.70,185.10 -178.67,181.66 -177.27,178.33 -176.09,176.18 -174.70,174.14 -173.09,172.26 -171.26,170.57 -169.25,169.10 -167.08,167.89 -164.80,166.93 -162.44,166.23 -160.07,165.75" via=":33_5_0" dir="l" state="m"/>
    <connection from="9648" to="9686" fromLane="0" toLane="0" contPos="-4.00" shape="-59.53,132.86 -59.13,135.04 -58.55,137.18 -57.78,139.25 -56.76,141.21 -56.15,142.13 -55.47,143.01 -54.72,143.82 -53.90,144.57 -53.02,145.24 -52.09,145.83 -51.10,146.34 -50.08,146.76 -47.96,147.37 -45.77,147.70 -43.56,147.79 -41.35,147.68 -39.15,147.41" via=":34_2_0" dir="r" state="m"/>