<routes>
	<vehicle depart="0.1" departLane="0" departPos="67.14777387685413" departSpeed="4.2038297" id="313" type="bicycle">
		<route edges=":42_1 41456"/>
	</vehicle>
	<vehicle depart="0.1" departLane="0" departPos="20.039845339147117" departSpeed="9.3092575" id="38" type="passenger">
		<route edges=":42_0 41159"/>
	</vehicle>
	<vehicle depart="0.1" departLane="0" departPos="2.5" departSpeed="0.17928769" id="310" type="passenger">
		<route edges=":40_1 41413"/>
	</vehicle>
	<vehicle depart="0.1" departLane="0" departPos="10.201922405240214" departSpeed="7.7489552" id="314" type="passenger">
		<route edges=":42_0 41159"/>
	</vehicle>
	<vehicle depart="0.1" departLane="0" departPos="85.82141845972636" departSpeed="2.7504841" id="316" type="passenger">
		<route edges=":42_1 41456 41413"/>
	</vehicle>
	<vehicle depart="0.1" departLane="0" departPos="18.473812014073083" departSpeed="6.9154246" id="318" type="passenger">
		<route edges=":43_0 41415 41159"/>
	</vehicle>
	<vehicle depart="0.1" departLane="0" departPos="77.96622927706512" departSpeed="2.6466894" id="319" type="passenger">
		<route edges=":42_1 41456 41413"/>
	</vehicle>
	<vehicle depart="0.1" departLane="0" departPos="71.59260996342135" departSpeed="1.5355702" id="321" type="passenger">
		<route edges=":42_1 41456"/>
	</vehicle>
	<vehicle depart="0.1" departLane="0" departPos="19.816834102109535" departSpeed="10.00986" id="326" type="motorcycle">
		<route edges=":44_0 41409 41415"/>
	</vehicle>
	<vehicle depart="0.1" departLane="0" departPos="56.75741343342452" departSpeed="6.5539046" id="322" type="truck">
		<route edges=":42_1 41456"/>
	</vehicle>
</routes>
