<routes>
	<vehicle depart="0.1" departLane="0" departPos="24.357638547250566" departSpeed="2.4377994" id="37" type="passenger">
		<route edges=":55_2 71891 71975"/>
	</vehicle>
	<vehicle depart="0.1" departLane="0" departPos="2.5" departSpeed="0.60172219" id="315" type="passenger">
		<route edges=":55_0 72275 72272"/>
	</vehicle>
	<vehicle depart="0.1" departLane="0" departPos="53.540062223901195" departSpeed="0.64721131" id="316" type="passenger">
		<route edges="71894 72275"/>
	</vehicle>
	<vehicle depart="0.1" departLane="0" departPos="43.399241130277794" departSpeed="1.4234463" id="330" type="passenger">
		<route edges="71894 72275"/>
	</vehicle>
	<vehicle depart="0.1" departLane="0" departPos="10.493256788325404" departSpeed="4.5666782" id="331" type="passenger">
		<route edges="72398 71973 71836"/>
	</vehicle>
	<vehicle depart="0.1" departLane="0" departPos="35.51070696516177" departSpeed="1.2068039" id="334" type="passenger">
		<route edges="71894 72275"/>
	</vehicle>
	<vehicle depart="0.1" departLane="0" departPos="26.258078873841903" departSpeed="1.4805046" id="339" type="passenger">
		<route edges="71894 72275"/>
	</vehicle>
	<vehicle depart="0.1" departLane="0" departPos="17.330178531242815" departSpeed="0.66888551" id="344" type="passenger">
		<route edges="71894 72275"/>
	</vehicle>
	<vehicle depart="0.1" departLane="0" departPos="5.391456286005047" departSpeed="1.774842" id="347" type="passenger">
		<route edges="71894 72275"/>
	</vehicle>
	<vehicle depart="0.1" departLane="0" departPos="26.9376302960477" departSpeed="1.270557" id="30" type="truck">
		<route edges=":55_1 71895"/>
	</vehicle>
</routes>
