<routes>
	<vehicle depart="0.1" departLane="0" departPos="37.8340378057134" departSpeed="1.8561096" id="35" type="passenger">
		<route edges=":40_2 68911 69036"/>
	</vehicle>
	<vehicle depart="0.1" departLane="0" departPos="20.525529840569913" departSpeed="0.71012442" id="321" type="passenger">
		<route edges=":41_5 69387"/>
	</vehicle>
	<vehicle depart="0.1" departLane="0" departPos="9.449840392630879" departSpeed="8.1118144" id="323" type="passenger">
		<route edges=":41_2 69379 69428"/>
	</vehicle>
	<vehicle depart="0.1" departLane="0" departPos="36.02702272412013" departSpeed="4.2784613" id="328" type="passenger">
		<route edges=":37_0 69032 69387 68986"/>
	</vehicle>
	<vehicle depart="0.1" departLane="0" departPos="27.885593658686023" departSpeed="4.2548986" id="333" type="passenger">
		<route edges=":37_0 69032 68915"/>
	</vehicle>
	<vehicle depart="0.1" departLane="0" departPos="2.5" departSpeed="6.7507709" id="335" type="passenger">
		<route edges="69036 69768"/>
	</vehicle>
	<vehicle depart="0.1" departLane="0" departPos="5.055184957864906" departSpeed="2.6806891" id="338" type="passenger">
		<route edges=":41_6 69379 69428"/>
	</vehicle>
	<vehicle depart="0.1" departLane="0" departPos="43.90453927186746" departSpeed="4.1801091" id="343" type="passenger">
		<route edges=":38_1 69394 69036"/>
	</vehicle>
	<vehicle depart="0.1" departLane="0" departPos="34.487360917368235" departSpeed="3.5608543" id="346" type="passenger">
		<route edges=":38_1 69394"/>
	</vehicle>
	<vehicle depart="0.1" departLane="0" departPos="17.68100213438914" departSpeed="2.1650823" id="329" type="motorcycle">
		<route edges=":37_0 69032"/>
	</vehicle>
</routes>
