<routes>
	<vehicle depart="0.1" departLane="0" departPos="33.021397617350544" departSpeed="0.0" id="325" type="passenger">
		<route edges="77549 77552"/>
	</vehicle>
	<vehicle depart="0.1" departLane="0" departPos="69.90167605707693" departSpeed="0.0" id="326" type="passenger">
		<route edges="77026 77551"/>
	</vehicle>
	<vehicle depart="0.1" departLane="0" departPos="12.169522467705645" departSpeed="10.566417" id="369" type="passenger">
		<route edges=":47_0 76992 77459"/>
	</vehicle>
	<vehicle depart="0.1" departLane="0" departPos="8.454631099897494" departSpeed="4.7438005" id="373" type="passenger">
		<route edges=":48_1 77027"/>
	</vehicle>
	<vehicle depart="0.1" departLane="0" departPos="62.40033277071012" departSpeed="0.0" id="35" type="motorcycle">
		<route edges="77026 77551"/>
	</vehicle>
	<vehicle depart="0.1" departLane="0" departPos="25.274138917778668" departSpeed="5.6992132" id="376" type="truck">
		<route edges="77554 77027"/>
	</vehicle>
</routes>
