<!-- generated on Tue Feb  9 22:17:37 2021 by Eclipse SUMO netconvert Version 1.8.0
<configuration xmlns:xsi="http://www.w3.org/2001/XMLSchema-instance" xsi:noNamespaceSchemaLocation="http://sumo.dlr.de/xsd/netconvertConfiguration.xsd">

    <input>
        <node-files value="./converted_scenarios/scenario-factory/BEL_Zwevegem-6_6_I-1-1/BEL_Zwevegem-6_6_I-1-1.nod.xml"/>
        <edge-files value="./converted_scenarios/scenario-factory/BEL_Zwevegem-6_6_I-1-1/BEL_Zwevegem-6_6_I-1-1.edg.xml"/>
        <connection-files value="./converted_scenarios/scenario-factory/BEL_Zwevegem-6_6_I-1-1/BEL_Zwevegem-6_6_I-1-1.con.xml"/>
        <tllogic-files value="./converted_scenarios/scenario-factory/BEL_Zwevegem-6_6_I-1-1/BEL_Zwevegem-6_6_I-1-1.tll.xml"/>
        <type-files value="/home/zen/commonroad-interactive-benchmarks/install/commonroad-map-tool/crmapconverter/sumo_map/templates/DEU.typ.xml"/>
    </input>

    <output>
        <output-file value="./converted_scenarios/scenario-factory/BEL_Zwevegem-6_6_I-1-1/BEL_Zwevegem-6_6_I-1-1.net.xml"/>
    </output>

    <processing>
        <geometry.remove.keep-edges.explicit value="true"/>
        <geometry.avoid-overlap value="true"/>
        <offset.disable-normalization value="true"/>
    </processing>

    <junctions>
        <no-turnarounds value="true"/>
        <junctions.internal-link-detail value="20"/>
    </junctions>

    <report>
        <aggregate-warnings value="5"/>
    </report>

    <random_number>
        <seed value="1234"/>
    </random_number>

</configuration>
--><net xmlns:xsi="http://www.w3.org/2001/XMLSchema-instance" version="1.6" junctionCornerDetail="5" junctionLinkDetail="20" limitTurnSpeed="5.50" xsi:noNamespaceSchemaLocation="http://sumo.dlr.de/xsd/net_file.xsd">

    <location netOffset="0.00,0.00" convBoundary="180.60,13.96,426.94,249.10" origBoundary="180.60,13.96,426.94,249.10" projParameter="!"/>

    <type id="highway.bridleway" priority="1" speed="2.78" allow="pedestrian" oneway="1" width="2.00"/>
    <type id="highway.bus_guideway" priority="1" speed="27.78" allow="bus" oneway="1"/>
    <type id="highway.cycleway" priority="1" speed="8.33" allow="bicycle" oneway="0" width="1.00"/>
    <type id="highway.footway" priority="1" speed="2.78" allow="pedestrian" oneway="1" width="2.00"/>
    <type id="highway.ford" priority="1" speed="2.78" allow="army" oneway="0"/>
    <type id="highway.living_street" priority="2" speed="2.78" disallow="tram rail_urban rail rail_electric rail_fast ship" oneway="0"/>
    <type id="highway.motorway" priority="14" speed="39.44" allow="private emergency authority army vip passenger hov taxi bus coach delivery truck trailer motorcycle evehicle custom1 custom2" oneway="1"/>
    <type id="highway.motorway_link" priority="9" speed="22.22" allow="private emergency authority army vip passenger hov taxi bus coach delivery truck trailer motorcycle evehicle custom1 custom2" oneway="1"/>
    <type id="highway.path" priority="1" speed="2.78" allow="pedestrian bicycle" oneway="0" width="2.00"/>
    <type id="highway.pedestrian" priority="1" speed="2.78" allow="pedestrian" oneway="1" width="2.00"/>
    <type id="highway.primary" priority="12" speed="27.78" disallow="pedestrian tram rail_urban rail rail_electric rail_fast ship" oneway="0"/>
    <type id="highway.primary_link" priority="7" speed="22.22" disallow="pedestrian tram rail_urban rail rail_electric rail_fast ship" oneway="0"/>
    <type id="highway.raceway" priority="15" speed="83.33" allow="vip" oneway="0"/>
    <type id="highway.residential" priority="3" speed="13.89" disallow="pedestrian tram rail_urban rail rail_electric rail_fast ship" oneway="0"/>
    <type id="highway.secondary" priority="11" speed="27.78" disallow="pedestrian tram rail_urban rail rail_electric rail_fast ship" oneway="0"/>
    <type id="highway.secondary_link" priority="6" speed="22.22" disallow="pedestrian tram rail_urban rail rail_electric rail_fast ship" oneway="0"/>
    <type id="highway.service" priority="1" speed="5.56" allow="pedestrian delivery bicycle" oneway="0"/>
    <type id="highway.stairs" priority="1" speed="1.39" allow="pedestrian" oneway="1" width="2.00"/>
    <type id="highway.step" priority="1" speed="1.39" allow="pedestrian" oneway="1" width="2.00"/>
    <type id="highway.steps" priority="1" speed="1.39" allow="pedestrian" oneway="1" width="2.00"/>
    <type id="highway.tertiary" priority="10" speed="22.22" disallow="pedestrian tram rail_urban rail rail_electric rail_fast ship" oneway="0"/>
    <type id="highway.tertiary_link" priority="5" speed="22.22" disallow="pedestrian tram rail_urban rail rail_electric rail_fast ship" oneway="0"/>
    <type id="highway.track" priority="1" speed="5.56" allow="pedestrian motorcycle moped bicycle" oneway="0"/>
    <type id="highway.trunk" priority="13" speed="27.78" disallow="pedestrian bicycle tram rail_urban rail rail_electric rail_fast ship" oneway="0"/>
    <type id="highway.trunk_link" priority="8" speed="22.22" disallow="pedestrian bicycle tram rail_urban rail rail_electric rail_fast ship" oneway="0"/>
    <type id="highway.unclassified" priority="4" speed="13.89" disallow="pedestrian tram rail_urban rail rail_electric rail_fast ship" oneway="0"/>
    <type id="highway.unsurfaced" priority="1" speed="8.33" disallow="tram rail_urban rail rail_electric rail_fast ship" oneway="0"/>
    <type id="railway.highspeed" priority="21" speed="69.44" allow="rail_fast" oneway="1"/>
    <type id="railway.light_rail" priority="19" speed="27.78" allow="rail_urban" oneway="1"/>
    <type id="railway.preserved" priority="16" speed="27.78" allow="rail" oneway="1"/>
    <type id="railway.rail" priority="20" speed="44.44" allow="rail" oneway="1"/>
    <type id="railway.subway" priority="18" speed="27.78" allow="rail_urban" oneway="1"/>
    <type id="railway.tram" priority="17" speed="13.89" allow="tram" oneway="1"/>

    <edge id=":27_0" function="internal">
        <lane id=":27_0_0" index="0" disallow="pedestrian tram rail_urban rail rail_electric rail_fast ship" speed="36.11" length="2.67" width="3.49" shape="300.91,192.53 302.16,190.17"/>
    </edge>
    <edge id=":3_0" function="internal">
        <lane id=":3_0_0" index="0" disallow="pedestrian tram rail_urban rail rail_electric rail_fast ship" speed="36.11" length="2.99" width="3.50" shape="368.73,156.14 371.16,157.88"/>
    </edge>
    <edge id=":38_0" function="internal">
        <lane id=":38_0_0" index="0" disallow="pedestrian tram rail_urban rail rail_electric rail_fast ship" speed="7.91" length="7.68" width="3.50" shape="343.17,135.40 343.52,138.29 344.38,139.66 345.87,141.22 346.65,141.84"/>
    </edge>
    <edge id=":38_1" function="internal">
        <lane id=":38_1_0" index="0" disallow="pedestrian tram rail_urban rail rail_electric rail_fast ship" speed="36.11" length="8.53" width="3.50" shape="338.52,138.92 339.19,139.20 346.23,142.56"/>
    </edge>
    <edge id=":39_0" function="internal">
        <lane id=":39_0_0" index="0" disallow="pedestrian tram rail_urban rail rail_electric rail_fast ship" speed="8.30" length="6.94" width="3.50" shape="322.39,133.32 323.51,133.26 325.16,132.92 326.22,132.51 327.16,131.89 328.40,130.49"/>
    </edge>
    <edge id=":39_1" function="internal">
        <lane id=":39_1_0" index="0" disallow="pedestrian tram rail_urban rail rail_electric rail_fast ship" speed="19.80" length="7.52" width="3.50" shape="322.39,133.50 323.32,133.59 326.36,134.31 329.64,135.41"/>
    </edge>
    <edge id=":4_0" function="internal">
        <lane id=":4_0_0" index="0" disallow="pedestrian tram rail_urban rail rail_electric rail_fast ship" speed="36.11" length="2.94" width="3.50" shape="387.76,170.43 389.97,172.37"/>
    </edge>
    <edge id=":40_0" function="internal">
        <lane id=":40_0_0" index="0" disallow="pedestrian tram rail_urban rail rail_electric rail_fast ship" speed="11.56" length="6.71" width="3.49" shape="310.52,130.49 313.27,131.72 316.28,132.72 316.80,132.82"/>
    </edge>
    <edge id=":40_1" function="internal">
        <lane id=":40_1_0" index="0" disallow="pedestrian tram rail_urban rail rail_electric rail_fast ship" speed="8.94" length="5.93" width="3.49" shape="311.24,135.90 313.20,134.98 315.72,134.12 316.80,133.89"/>
    </edge>
    <edge id=":41_0" function="internal">
        <lane id=":41_0_0" index="0" disallow="pedestrian tram rail_urban rail rail_electric rail_fast ship" speed="29.57" length="27.86" width="3.48" shape="356.86,94.01 352.51,102.14 349.19,109.08 346.84,114.76 345.27,119.30"/>
    </edge>
    <edge id=":41_1" function="internal">
        <lane id=":41_1_0" index="0" disallow="pedestrian tram rail_urban rail rail_electric rail_fast ship" speed="36.11" length="31.40" width="3.50" shape="337.52,119.13 338.88,117.20 344.07,109.03 351.05,97.17 353.81,92.30"/>
    </edge>
    <edge id=":42_0" function="internal">
        <lane id=":42_0_0" index="0" disallow="pedestrian tram rail_urban rail rail_electric rail_fast ship" speed="36.11" length="87.34" width="3.50" shape="284.77,133.67 278.32,123.77 270.31,112.17 262.57,101.62 255.13,92.09 247.71,83.19 240.34,74.93 233.36,67.66 230.86,65.19"/>
    </edge>
    <edge id=":42_1" function="internal">
        <lane id=":42_1_0" index="0" disallow="pedestrian tram rail_urban rail rail_electric rail_fast ship" speed="36.11" length="85.52" width="3.50" shape="233.30,62.67 251.42,80.12 269.45,96.93 287.37,113.11 296.05,120.76"/>
    </edge>
    <edge id=":43_0" function="internal">
        <lane id=":43_0_0" index="0" disallow="pedestrian tram rail_urban rail rail_electric rail_fast ship" speed="23.98" length="10.53" width="3.50" shape="292.90,152.99 292.32,150.72 290.47,144.94 289.68,142.97"/>
    </edge>
    <edge id=":43_1" function="internal">
        <lane id=":43_1_0" index="0" disallow="pedestrian tram rail_urban rail rail_electric rail_fast ship" speed="5.92" length="4.46" width="3.50" shape="296.63,152.23 296.84,151.51 297.88,149.01 298.36,148.13"/>
    </edge>
    <edge id=":44_0" function="internal">
        <lane id=":44_0_0" index="0" disallow="pedestrian tram rail_urban rail rail_electric rail_fast ship" speed="36.11" length="12.59" width="3.50" shape="306.72,190.02 304.48,186.35 300.74,179.68 300.46,179.10"/>
    </edge>
    <edge id=":44_1" function="internal">
        <lane id=":44_1_0" index="0" disallow="pedestrian tram rail_urban rail rail_electric rail_fast ship" speed="10.53" length="11.33" width="3.50" shape="302.03,190.22 302.11,189.99 302.32,188.39 302.19,186.25 301.66,183.63 300.54,180.04 300.20,179.21"/>
    </edge>
    <edge id=":45_0" function="internal">
        <lane id=":45_0_0" index="0" disallow="pedestrian tram rail_urban rail rail_electric rail_fast ship" speed="10.95" length="14.44" width="3.49" shape="321.87,213.67 320.21,211.60 317.72,208.90 315.74,207.17 314.40,206.36 313.90,206.19 310.51,206.26"/>
    </edge>
    <edge id=":45_1" function="internal">
        <lane id=":45_1_0" index="0" disallow="pedestrian tram rail_urban rail rail_electric rail_fast ship" speed="36.11" length="15.36" width="3.50" shape="322.01,213.56 319.36,209.85 313.44,200.82"/>
    </edge>

    <edge id="41102" from="41" to="38" priority="3" type="highway.residential" spreadType="center" length="16.23">
        <lane id="41102_0" index="0" disallow="pedestrian tram rail_urban rail rail_electric rail_fast ship" speed="36.11" length="16.23" width="3.48" customShape="1" shape="343.94,119.20 343.22,129.25 343.21,129.37 343.10,133.73 343.17,135.40"/>
    </edge>
    <edge id="41107" from="39" to="38" priority="3" type="highway.residential" spreadType="center" length="9.55">
        <lane id="41107_0" index="0" disallow="pedestrian tram rail_urban rail rail_electric rail_fast ship" speed="36.11" length="9.55" width="3.50" customShape="1" shape="329.67,135.33 332.40,136.38 338.59,138.75"/>
    </edge>
    <edge id="41158" from="31" to="42" priority="3" type="highway.residential" spreadType="center" length="70.01" shape="183.04,13.96 262.89,94.95">
        <lane id="41158_0" index="0" disallow="pedestrian tram rail_urban rail rail_electric rail_fast ship" speed="36.11" length="70.01" width="3.50" customShape="1" shape="183.04,13.96 233.31,62.68"/>
    </edge>
    <edge id="41159" from="42" to="28" priority="3" type="highway.residential" spreadType="center" length="70.00" shape="260.40,97.41 180.60,16.47">
        <lane id="41159_0" index="0" disallow="pedestrian tram rail_urban rail rail_electric rail_fast ship" speed="36.11" length="70.00" width="3.50" customShape="1" shape="230.86,65.19 180.60,16.47"/>
    </edge>
    <edge id="41212" from="4" to="6" priority="3" type="highway.residential" spreadType="center" length="54.27">
        <lane id="41212_0" index="0" disallow="pedestrian tram rail_urban rail rail_electric rail_fast ship" speed="36.11" length="54.27" width="3.50" customShape="1" shape="389.97,172.37 396.39,178.19 405.54,186.95 410.79,192.45 416.40,198.98 426.63,211.57 426.94,211.96"/>
    </edge>
    <edge id="41224" from="30" to="45" priority="3" type="highway.residential" spreadType="center" length="47.82">
        <lane id="41224_0" index="0" disallow="pedestrian tram rail_urban rail rail_electric rail_fast ship" speed="36.11" length="47.82" width="3.50" customShape="1" shape="353.92,249.10 344.30,239.32 334.53,228.99 329.19,222.86 321.89,213.65"/>
    </edge>
    <edge id="41275" from="39" to="41" priority="3" type="highway.residential" spreadType="center" length="14.54">
        <lane id="41275_0" index="0" disallow="pedestrian tram rail_urban rail rail_electric rail_fast ship" speed="36.11" length="14.54" width="3.50" customShape="1" shape="328.40,130.49 330.01,128.62 332.31,125.95 332.40,125.85 338.07,119.64"/>
    </edge>
    <edge id="41284" from="45" to="44" priority="3" type="highway.residential" spreadType="center" length="12.73">
        <lane id="41284_0" index="0" disallow="pedestrian tram rail_urban rail rail_electric rail_fast ship" speed="36.11" length="12.73" width="3.50" customShape="1" shape="313.41,200.84 310.65,196.45 306.63,190.07"/>
    </edge>
    <edge id="41292" from="38" to="3" priority="3" type="highway.residential" spreadType="center" length="26.30">
        <lane id="41292_0" index="0" disallow="pedestrian tram rail_urban rail rail_electric rail_fast ship" speed="36.11" length="26.30" width="3.50" customShape="1" shape="346.41,142.25 360.57,150.62 366.58,154.62 368.73,156.14"/>
    </edge>
    <edge id="41389" from="17" to="41" priority="3" type="highway.residential" spreadType="center" length="70.01" shape="390.81,32.79 348.11,111.17">
        <lane id="41389_0" index="0" disallow="pedestrian tram rail_urban rail rail_electric rail_fast ship" speed="36.11" length="70.01" width="3.50" customShape="1" shape="390.81,32.79 389.77,34.76 383.33,46.69 356.86,94.01"/>
    </edge>
    <edge id="41390" from="41" to="11" priority="3" type="highway.residential" spreadType="center" length="70.00" shape="345.04,109.49 387.76,31.09">
        <lane id="41390_0" index="0" disallow="pedestrian tram rail_urban rail rail_electric rail_fast ship" speed="36.11" length="70.00" width="3.50" customShape="1" shape="353.81,92.30 380.28,44.97 386.71,33.05 387.76,31.09"/>
    </edge>
    <edge id="41409" from="44" to="43" priority="3" type="highway.residential" spreadType="center" length="27.28">
        <lane id="41409_0" index="0" disallow="pedestrian tram rail_urban rail rail_electric rail_fast ship" speed="36.11" length="27.28" width="3.50" customShape="1" shape="300.17,179.22 297.38,172.12 296.38,168.56 293.19,152.93"/>
    </edge>
    <edge id="41411" from="43" to="40" priority="3" type="highway.residential" spreadType="center" length="17.72">
        <lane id="41411_0" index="0" disallow="pedestrian tram rail_urban rail rail_electric rail_fast ship" speed="36.11" length="17.72" width="3.50" customShape="1" shape="297.16,146.69 305.00,140.10 310.73,135.30"/>
    </edge>
    <edge id="41413" from="40" to="39" priority="3" type="highway.residential" spreadType="center" length="5.59">
        <lane id="41413_0" index="0" disallow="pedestrian tram rail_urban rail rail_electric rail_fast ship" speed="36.11" length="5.59" width="3.49" customShape="1" shape="316.80,133.40 321.12,133.39 322.39,133.39"/>
    </edge>
    <edge id="41415" from="43" to="42" priority="3" type="highway.residential" spreadType="center" length="10.51" shape="295.80,147.81 260.17,97.12">
        <lane id="41415_0" index="0" disallow="pedestrian tram rail_urban rail rail_electric rail_fast ship" speed="36.11" length="10.51" width="3.50" customShape="1" shape="290.41,142.52 286.36,136.12 284.79,133.64"/>
    </edge>
    <edge id="41456" from="42" to="40" priority="3" type="highway.residential" spreadType="center" length="17.48" shape="262.69,94.77 310.60,133.77">
        <lane id="41456_0" index="0" disallow="pedestrian tram rail_urban rail rail_electric rail_fast ship" speed="36.11" length="17.48" width="3.50" customShape="1" shape="296.05,120.76 296.14,120.84 296.24,120.92 300.31,124.23 304.18,126.93 305.52,127.76 305.63,127.83 310.38,130.72"/>
    </edge>
    <edge id="41460" from="27" to="44" priority="3" type="highway.residential" spreadType="center" length="0.20">
        <lane id="41460_0" index="0" disallow="pedestrian tram rail_urban rail rail_electric rail_fast ship" speed="36.11" length="0.20" width="3.49" customShape="1" shape="302.16,190.17 302.25,189.99"/>
    </edge>
    <edge id="41637" from="29" to="27" priority="3" type="highway.residential" spreadType="center" length="13.36">
        <lane id="41637_0" index="0" disallow="pedestrian tram rail_urban rail rail_electric rail_fast ship" speed="36.11" length="13.36" width="3.50" customShape="1" shape="294.12,204.03 300.65,193.02 300.91,192.53"/>
    </edge>
    <edge id="41719" from="3" to="4" priority="3" type="highway.residential" spreadType="center" length="20.81">
        <lane id="41719_0" index="0" disallow="pedestrian tram rail_urban rail rail_electric rail_fast ship" speed="36.11" length="20.81" width="3.50" customShape="1" shape="371.16,157.88 380.58,164.75 387.34,170.08 387.76,170.43"/>
    </edge>
    <edge id="41824" from="45" to="34" priority="3" type="highway.residential" spreadType="center" length="21.88">
        <lane id="41824_0" index="0" disallow="pedestrian tram rail_urban rail rail_electric rail_fast ship" speed="36.11" length="21.88" width="3.49" customShape="1" shape="310.51,206.26 308.83,206.35 305.65,206.85 305.12,206.97 305.00,207.00 304.88,207.03 303.40,207.55 301.56,208.54 299.49,210.12 297.26,212.32 294.93,215.15 293.12,217.70"/>
    </edge>

    <junction id="11" type="dead_end" x="387.76" y="31.09" incLanes="41390_0" intLanes="" shape="386.21,30.27 389.30,31.91" rightOfWay="edgePriority"/>
    <junction id="17" type="dead_end" x="390.81" y="32.79" incLanes="" intLanes="" shape="389.27,31.97 392.36,33.62" rightOfWay="edgePriority"/>
    <junction id="27" type="priority" x="301.62" y="191.22" incLanes="41637_0" intLanes=":27_0_0" shape="303.86,190.70 300.75,189.10 299.38,191.69 302.45,193.36" rightOfWay="edgePriority">
        <request index="0" response="0" foes="0" cont="0"/>
    </junction>
    <junction id="28" type="dead_end" x="180.60" y="16.47" incLanes="41159_0" intLanes="" shape="179.38,17.72 181.82,15.21" rightOfWay="edgePriority"/>
    <junction id="29" type="dead_end" x="294.12" y="204.03" incLanes="" intLanes="" shape="295.62,204.93 292.61,203.14" rightOfWay="edgePriority"/>
    <junction id="3" type="priority" x="369.95" y="157.00" incLanes="41292_0" intLanes=":3_0_0" shape="370.13,159.29 372.19,156.47 369.74,154.71 367.72,157.57" rightOfWay="edgePriority">
        <request index="0" response="0" foes="0" cont="0"/>
    </junction>
    <junction id="30" type="dead_end" x="353.92" y="249.10" incLanes="" intLanes="" shape="355.16,247.87 352.67,250.32" rightOfWay="edgePriority"/>
    <junction id="31" type="dead_end" x="183.04" y="13.96" incLanes="" intLanes="" shape="181.82,15.22 184.26,12.70" rightOfWay="edgePriority"/>
    <junction id="34" type="dead_end" x="293.12" y="217.70" incLanes="41824_0" intLanes="" shape="294.54,218.71 291.69,216.69" rightOfWay="edgePriority"/>
    <junction id="38" type="priority" x="343.22" y="140.12" incLanes="41102_0 41107_0" intLanes=":38_0_0 :38_1_0" shape="345.52,143.76 347.31,140.74 346.05,139.55 345.60,138.72 345.25,137.73 345.02,136.58 344.90,135.28 341.43,135.51 341.23,136.80 340.93,137.16 340.49,137.34 339.92,137.32 339.22,137.12 337.96,140.39 340.85,141.45 341.86,141.84 342.84,142.28 343.99,142.88">
        <request index="0" response="00" foes="10" cont="0"/>
        <request index="1" response="01" foes="01" cont="0"/>
    </junction>
    <junction id="39" type="priority" x="327.03" y="133.74" incLanes="41413_0" intLanes=":39_0_0 :39_1_0" shape="329.04,136.96 330.29,133.70 329.45,133.16 329.28,132.83 329.27,132.46 329.43,132.05 329.75,131.60 327.04,129.39 325.66,130.64 324.91,131.07 324.11,131.39 323.27,131.58 322.38,131.64 322.39,135.13 324.93,135.33 325.80,135.58 326.65,135.94 327.67,136.40">
        <request index="0" response="00" foes="00" cont="0"/>
        <request index="1" response="00" foes="00" cont="0"/>
    </junction>
    <junction id="4" type="priority" x="388.88" y="171.38" incLanes="41719_0" intLanes=":4_0_0" shape="388.80,173.67 391.15,171.08 388.89,169.10 386.63,171.77" rightOfWay="edgePriority">
        <request index="0" response="0" foes="0" cont="0"/>
    </junction>
    <junction id="40" type="priority" x="310.60" y="133.77" incLanes="41456_0 41411_0" intLanes=":40_0_0 :40_1_0" shape="316.80,135.14 316.79,131.65 314.60,131.37 313.88,131.03 313.19,130.55 312.38,129.95 311.29,129.22 309.47,132.21 310.06,132.75 310.15,133.04 310.10,133.34 309.92,133.64 309.61,133.96 311.85,136.64 313.44,135.51 314.10,135.27 314.81,135.17 315.67,135.14">
        <request index="0" response="00" foes="10" cont="0"/>
        <request index="1" response="01" foes="01" cont="0"/>
    </junction>
    <junction id="41" type="priority" x="346.59" y="110.30" incLanes="41389_0 41275_0" intLanes=":41_0_0 :41_1_0" shape="358.39,94.86 352.28,91.45 349.22,97.37 347.21,101.93 345.61,105.74 343.77,109.36 341.04,113.41 336.78,118.46 339.36,120.82 340.99,119.19 341.55,118.76 341.94,118.61 342.15,118.71 342.20,119.08 345.68,119.33 346.50,113.58 347.92,109.55 349.88,106.45 352.32,103.50 355.18,99.90">
        <request index="0" response="00" foes="00" cont="0"/>
        <request index="1" response="00" foes="00" cont="0"/>
    </junction>
    <junction id="42" type="priority" x="261.63" y="96.16" incLanes="41415_0 41158_0" intLanes=":42_0_0 :42_1_0" shape="283.59,135.02 297.20,119.44 234.52,61.42 229.64,66.44 238.94,76.10 248.64,87.26 258.33,99.34 267.65,111.72 276.20,123.81">
        <request index="0" response="00" foes="00" cont="0"/>
        <request index="1" response="00" foes="00" cont="0"/>
    </junction>
    <junction id="43" type="priority" x="295.80" y="147.81" incLanes="41409_0" intLanes=":43_0_0 :43_1_0" shape="291.48,153.28 294.91,152.58 295.15,151.42 295.60,150.71 296.27,149.90 297.17,149.01 298.28,148.03 296.03,145.35 295.06,145.36 294.42,144.89 293.68,144.10 292.83,143.00 291.89,141.58 288.93,143.45 289.99,145.32 290.57,146.80 290.84,148.11 291.13,151.12">
        <request index="0" response="00" foes="00" cont="0"/>
        <request index="1" response="00" foes="00" cont="0"/>
    </junction>
    <junction id="44" type="priority" x="303.68" y="187.63" incLanes="41284_0 41460_0" intLanes=":44_0_0 :44_1_0" shape="305.15,191.00 308.11,189.14 306.66,186.95 305.52,185.36 304.57,184.05 303.71,182.70 302.82,180.99 301.80,178.58 298.54,179.86 299.43,182.26 300.10,184.34 300.55,186.10 300.78,187.54 300.78,188.66 300.56,189.47 303.67,191.07 304.14,190.47 304.38,190.38 304.63,190.45 304.89,190.65">
        <request index="0" response="10" foes="10" cont="0"/>
        <request index="1" response="00" foes="01" cont="0"/>
    </junction>
    <junction id="45" type="priority" x="315.97" y="206.26" incLanes="41224_0" intLanes=":45_0_0 :45_1_0" shape="320.52,214.74 323.26,212.57 321.28,210.01 319.89,208.07 318.82,206.42 317.81,204.72 316.59,202.66 314.89,199.91 311.93,201.77 312.49,203.22 312.38,203.75 312.02,204.14 311.39,204.39 310.50,204.51 310.53,208.00 313.62,208.65 315.25,209.57 316.95,210.90 318.70,212.62">
        <request index="0" response="00" foes="00" cont="0"/>
        <request index="1" response="00" foes="00" cont="0"/>
    </junction>
    <junction id="6" type="dead_end" x="426.94" y="211.96" incLanes="41212_0" intLanes="" shape="428.32,210.89 425.56,213.04" rightOfWay="edgePriority"/>

    <connection from="41102" to="41292" fromLane="0" toLane="0" contPos="-4.00" shape="343.25,137.25 343.52,138.29 344.38,139.66 345.87,141.22 348.41,143.24 352.04,145.59 353.91,146.68" via=":38_0_0" dir="r" state="M"/>
    <connection from="41107" to="41292" fromLane="0" toLane="0" contPos="-4.00" shape="332.52,136.42 339.19,139.20 346.18,142.53 353.46,146.43 353.91,146.68" via=":38_1_0" dir="s" state="m"/>
    <connection from="41158" to="41456" fromLane="0" toLane="0" contPos="-4.00" shape="233.31,62.68 251.42,80.12 269.45,96.93 287.37,113.11 296.05,120.76" via=":42_1_0" dir="s" state="M"/>
    <connection from="41224" to="41824" fromLane="0" toLane="0" contPos="-4.00" shape="323.82,216.09 320.21,211.60 317.72,208.90 315.74,207.17 314.40,206.36 313.90,206.19 313.39,206.12" via=":45_0_0" dir="r" state="M"/>
    <connection from="41224" to="41284" fromLane="0" toLane="0" contPos="-4.00" shape="323.82,216.09 319.36,209.85 312.63,199.58 310.71,196.55" via=":45_1_0" dir="s" state="M"/>
    <connection from="41275" to="41390" fromLane="0" toLane="0" contPos="-4.00" shape="332.48,125.76 335.07,122.61 338.88,117.20 344.07,109.03 351.05,97.17 353.81,92.30" via=":41_1_0" dir="s" state="M"/>
    <connection from="41284" to="41409" fromLane="0" toLane="0" contPos="-4.00" shape="310.58,196.34 304.48,186.35 300.74,179.68 298.73,175.57" via=":44_0_0" dir="s" state="m"/>
    <connection from="41292" to="41719" fromLane="0" toLane="0" contPos="-4.00" via=":3_0_0" dir="s" state="M"/>
    <connection from="41389" to="41102" fromLane="0" toLane="0" contPos="-4.00" shape="356.86,94.01 352.51,102.14 349.19,109.08 346.84,114.76 345.17,119.60 343.99,124.06 343.38,127.59 343.23,129.12" via=":41_0_0" dir="s" state="M"/>
    <connection from="41409" to="41415" fromLane="0" toLane="0" contPos="-4.00" shape="296.06,167.01 294.21,158.08 292.32,150.72 290.47,144.94 288.78,140.70 287.20,137.53 286.42,136.22" via=":43_0_0" dir="s" state="M"/>
    <connection from="41409" to="41411" fromLane="0" toLane="0" contPos="-4.00" shape="296.06,167.01 295.54,163.26 295.41,160.01 295.62,156.77 296.09,154.11 296.84,151.51 297.88,149.01 299.19,146.64 300.75,144.43 302.91,142.01 304.91,140.18" via=":43_1_0" dir="l" state="M"/>
    <connection from="41411" to="41413" fromLane="0" toLane="0" contPos="-4.00" shape="305.10,140.02 308.07,137.77 310.80,136.11 313.20,134.98 315.72,134.12 318.33,133.58 320.98,133.39" via=":40_1_0" dir="s" state="m"/>
    <connection from="41413" to="41275" fromLane="0" toLane="0" contPos="-4.00" shape="321.25,133.39 323.51,133.26 325.16,132.92 326.22,132.51 327.16,131.89 327.55,131.49" via=":39_0_0" dir="r" state="M"/>
    <connection from="41413" to="41107" fromLane="0" toLane="0" contPos="-4.00" shape="321.25,133.39 323.32,133.59 326.36,134.31 331.30,135.96 332.28,136.33" via=":39_1_0" dir="s" state="M"/>
    <connection from="41415" to="41159" fromLane="0" toLane="0" contPos="-4.00" shape="286.29,136.01 278.32,123.77 270.31,112.17 262.57,101.62 255.13,92.09 247.71,83.19 240.34,74.93 233.36,67.66 230.86,65.19" via=":42_0_0" dir="s" state="M"/>
    <connection from="41456" to="41413" fromLane="0" toLane="0" contPos="-4.00" shape="305.74,127.90 309.89,130.21 313.27,131.72 316.28,132.72 318.87,133.24 320.98,133.39" via=":40_0_0" dir="s" state="M"/>
    <connection from="41460" to="41409" fromLane="0" toLane="0" contPos="-4.00" shape="301.74,190.99 302.11,189.99 302.32,188.39 302.19,186.25 301.66,183.63 300.54,180.04 298.73,175.57" via=":44_1_0" dir="s" state="M"/>
    <connection from="41637" to="41460" fromLane="0" toLane="0" contPos="-4.00" via=":27_0_0" dir="s" state="M"/>
    <connection from="41719" to="41212" fromLane="0" toLane="0" contPos="-4.00" via=":4_0_0" dir="s" state="M"/>

    <connection from=":27_0" to="41460" fromLane="0" toLane="0" dir="s" state="M"/>
    <connection from=":3_0" to="41719" fromLane="0" toLane="0" dir="s" state="M"/>
    <connection from=":38_0" to="41292" fromLane="0" toLane="0" dir="r" state="M"/>
    <connection from=":38_1" to="41292" fromLane="0" toLane="0" dir="s" state="M"/>
    <connection from=":39_0" to="41275" fromLane="0" toLane="0" dir="r" state="M"/>
    <connection from=":39_1" to="41107" fromLane="0" toLane="0" dir="s" state="M"/>
    <connection from=":4_0" to="41212" fromLane="0" toLane="0" dir="s" state="M"/>
    <connection from=":40_0" to="41413" fromLane="0" toLane="0" dir="s" state="M"/>
    <connection from=":40_1" to="41413" fromLane="0" toLane="0" dir="s" state="M"/>
    <connection from=":41_0" to="41102" fromLane="0" toLane="0" dir="s" state="M"/>
    <connection from=":41_1" to="41390" fromLane="0" toLane="0" dir="s" state="M"/>
    <connection from=":42_0" to="41159" fromLane="0" toLane="0" dir="s" state="M"/>
    <connection from=":42_1" to="41456" fromLane="0" toLane="0" dir="s" state="M"/>
    <connection from=":43_0" to="41415" fromLane="0" toLane="0" dir="s" state="M"/>
    <connection from=":43_1" to="41411" fromLane="0" toLane="0" dir="l" state="M"/>
    <connection from=":44_0" to="41409" fromLane="0" toLane="0" dir="s" state="M"/>
    <connection from=":44_1" to="41409" fromLane="0" toLane="0" dir="s" state="M"/>
    <connection from=":45_0" to="41824" fromLane="0" toLane="0" dir="r" state="M"/>
    <connection from=":45_1" to="41284" fromLane="0" toLane="0" dir="s" state="M"/>

</net>