<routes>
	<vehicle depart="0.1" departLane="0" departPos="6.275304152753883" departSpeed="3.3108062" id="31" type="passenger">
		<route edges=":44_0 41409"/>
	</vehicle>
	<vehicle depart="0.1" departLane="0" departPos="19.983316980277756" departSpeed="2.8259144" id="32" type="passenger">
		<route edges=":45_1 41284"/>
	</vehicle>
	<vehicle depart="0.1" departLane="0" departPos="29.91169577146372" departSpeed="5.4359576" id="310" type="passenger">
		<route edges=":43_1 41411 41413"/>
	</vehicle>
	<vehicle depart="0.1" departLane="0" departPos="8.985466615298119" departSpeed="3.9096121" id="314" type="passenger">
		<route edges=":43_0 41415"/>
	</vehicle>
	<vehicle depart="0.1" departLane="0" departPos="2.5" departSpeed="0.0" id="316" type="passenger">
		<route edges=":40_0 41413"/>
	</vehicle>
	<vehicle depart="0.1" departLane="0" departPos="7.503831822925039" departSpeed="3.2150244" id="318" type="passenger">
		<route edges="41409 41415"/>
	</vehicle>
	<vehicle depart="0.1" departLane="0" departPos="28.544161046982374" departSpeed="8.9773223" id="328" type="passenger">
		<route edges=":41_0 41102 41292 41719"/>
	</vehicle>
	<vehicle depart="0.1" departLane="0" departPos="1.3641914072378145" departSpeed="0.511627" id="326" type="motorcycle">
		<route edges="41460 41409 41411"/>
	</vehicle>
	<vehicle depart="0.1" departLane="0" departPos="19.54867890631923" departSpeed="3.4962108" id="30" type="truck">
		<route edges=":44_0 41409 41411"/>
	</vehicle>
	<vehicle depart="0.1" departLane="0" departPos="18.41747120698422" departSpeed="0.0" id="33" type="truck">
		<route edges=":40_1 41413"/>
	</vehicle>
</routes>
