<routes>
	<vehicle depart="0.1" departLane="0" departPos="45.59559475661656" departSpeed="7.7553987" id="3117" type="bus">
		<route edges="5719 6202"/>
	</vehicle>
	<vehicle depart="0.1" departLane="0" departPos="6.413035111374934" departSpeed="0.2472006" id="312" type="passenger">
		<route edges=":78_4 5718"/>
	</vehicle>
	<vehicle depart="0.1" departLane="0" departPos="62.105979491238685" departSpeed="2.5638558" id="348" type="passenger">
		<route edges="5721 6202"/>
	</vehicle>
	<vehicle depart="0.1" departLane="0" departPos="23.488157523268832" departSpeed="0.0" id="357" type="passenger">
		<route edges="6199 6202"/>
	</vehicle>
	<vehicle depart="0.1" departLane="0" departPos="15.987495400717592" departSpeed="0.0" id="368" type="passenger">
		<route edges="6199 6202"/>
	</vehicle>
	<vehicle depart="0.1" departLane="0" departPos="20.53846228875815" departSpeed="7.5701707" id="3102" type="passenger">
		<route edges="5722 6268"/>
	</vehicle>
	<vehicle depart="0.1" departLane="0" departPos="15.116713251665574" departSpeed="8.3794377" id="3112" type="passenger">
		<route edges=":78_2 5722"/>
	</vehicle>
	<vehicle depart="0.1" departLane="0" departPos="27.69236826042527" departSpeed="4.8420512" id="3121" type="passenger">
		<route edges="5719 6202"/>
	</vehicle>
	<vehicle depart="0.1" departLane="0" departPos="28.89849363524976" departSpeed="8.7185556" id="3110" type="truck">
		<route edges=":78_2 5722 6268"/>
	</vehicle>
</routes>
