<!-- generated on 2020-12-18 16:05:12.150287 by ipykernel_launcher.py v1_2_0+5214-53edc58fcd
-->
<connections>
	<connection contPos="-4.0" from="101" fromLane="0" keepClear="true" to="145" toLane="0"/>
	<connection contPos="-4.0" from="101" fromLane="0" keepClear="true" to="161" toLane="0"/>
	<connection contPos="-4.0" from="103" fromLane="0" keepClear="true" to="165" toLane="0"/>
	<connection contPos="-4.0" from="103" fromLane="0" keepClear="true" to="164" toLane="0"/>
	<connection contPos="-4.0" from="104" fromLane="0" keepClear="true" to="137" toLane="0"/>
	<connection contPos="-4.0" from="104" fromLane="0" keepClear="true" to="162" toLane="0"/>
	<connection contPos="-4.0" from="105" fromLane="0" keepClear="true" to="136" toLane="0"/>
	<connection contPos="-4.0" from="105" fromLane="0" keepClear="true" to="181" toLane="0"/>
	<connection contPos="-4.0" from="105" fromLane="0" keepClear="true" to="179" toLane="0"/>
	<connection contPos="-4.0" from="107" fromLane="0" keepClear="true" to="154" toLane="0"/>
	<connection contPos="-4.0" from="110" fromLane="0" keepClear="true" to="168" toLane="0"/>
	<connection contPos="-4.0" from="110" fromLane="0" keepClear="true" to="160" toLane="0"/>
	<connection contPos="-4.0" from="111" fromLane="0" keepClear="true" to="147" toLane="0"/>
	<connection contPos="-4.0" from="111" fromLane="0" keepClear="true" to="146" toLane="0"/>
	<connection contPos="-4.0" from="113" fromLane="0" keepClear="true" to="184" toLane="0"/>
	<connection contPos="-4.0" from="113" fromLane="0" keepClear="true" to="151" toLane="0"/>
	<connection contPos="-4.0" from="114" fromLane="0" keepClear="true" to="142" toLane="0"/>
	<connection contPos="-4.0" from="114" fromLane="0" keepClear="true" to="138" toLane="0"/>
	<connection contPos="-4.0" from="116" fromLane="0" keepClear="true" to="159" toLane="0"/>
	<connection contPos="-4.0" from="116" fromLane="0" keepClear="true" to="149" toLane="0"/>
	<connection contPos="-4.0" from="118" fromLane="0" keepClear="true" to="141" toLane="0"/>
	<connection contPos="-4.0" from="118" fromLane="0" keepClear="true" to="144" toLane="0"/>
	<connection contPos="-4.0" from="118" fromLane="0" keepClear="true" to="150" toLane="0"/>
	<connection contPos="-4.0" from="119" fromLane="0" keepClear="true" to="143" toLane="0"/>
	<connection contPos="-4.0" from="119" fromLane="0" keepClear="true" to="156" toLane="0"/>
	<connection contPos="-4.0" from="120" fromLane="0" keepClear="true" to="152" toLane="0"/>
	<connection contPos="-4.0" from="120" fromLane="0" keepClear="true" to="158" toLane="0"/>
	<connection contPos="-4.0" from="121" fromLane="0" keepClear="true" to="153" toLane="0"/>
	<connection contPos="-4.0" from="121" fromLane="0" keepClear="true" to="140" toLane="0"/>
	<connection contPos="-4.0" from="121" fromLane="0" keepClear="true" to="157" toLane="0"/>
	<connection contPos="-4.0" from="122" fromLane="0" keepClear="true" to="155" toLane="0"/>
	<connection contPos="-4.0" from="122" fromLane="0" keepClear="true" to="174" toLane="0"/>
	<connection contPos="-4.0" from="123" fromLane="0" keepClear="true" to="163" toLane="0"/>
	<connection contPos="-4.0" from="123" fromLane="0" keepClear="true" to="180" toLane="0"/>
	<connection contPos="-4.0" from="124" fromLane="0" keepClear="true" to="172" toLane="0"/>
	<connection contPos="-4.0" from="125" fromLane="0" keepClear="true" to="183" toLane="0"/>
	<connection contPos="-4.0" from="125" fromLane="0" keepClear="true" to="139" toLane="0"/>
	<connection contPos="-4.0" from="126" fromLane="0" keepClear="true" to="176" toLane="0"/>
	<connection contPos="-4.0" from="126" fromLane="0" keepClear="true" to="178" toLane="0"/>
	<connection contPos="-4.0" from="127" fromLane="0" keepClear="true" to="173" toLane="0"/>
	<connection contPos="-4.0" from="127" fromLane="0" keepClear="true" to="166" toLane="0"/>
	<connection contPos="-4.0" from="130" fromLane="0" keepClear="true" to="170" toLane="0"/>
	<connection contPos="-4.0" from="130" fromLane="0" keepClear="true" to="182" toLane="0"/>
	<connection contPos="-4.0" from="132" fromLane="0" keepClear="true" to="135" toLane="0"/>
	<connection contPos="-4.0" from="132" fromLane="0" keepClear="true" to="148" toLane="0"/>
	<connection contPos="-4.0" from="133" fromLane="0" keepClear="true" to="177" toLane="0"/>
	<connection contPos="-4.0" from="133" fromLane="0" keepClear="true" to="167" toLane="0"/>
	<connection contPos="-4.0" from="134" fromLane="0" keepClear="true" to="171" toLane="0"/>
	<connection contPos="-4.0" from="134" fromLane="0" keepClear="true" to="169" toLane="0"/>
	<connection contPos="-4.0" from="134" fromLane="0" keepClear="true" to="175" toLane="0"/>
	<connection contPos="-4.0" from="135" fromLane="0" keepClear="true" to="114" toLane="0"/>
	<connection contPos="-4.0" from="136" fromLane="0" keepClear="true" to="122" toLane="0"/>
	<connection contPos="-4.0" from="137" fromLane="0" keepClear="true" to="134" toLane="0"/>
	<connection contPos="-4.0" from="138" fromLane="0" keepClear="true" to="120" toLane="0"/>
	<connection contPos="-4.0" from="139" fromLane="0" keepClear="true" to="115" toLane="0"/>
	<connection contPos="-4.0" from="140" fromLane="0" keepClear="true" to="133" toLane="0"/>
	<connection contPos="-4.0" from="141" fromLane="0" keepClear="true" to="122" toLane="0"/>
	<connection contPos="-4.0" from="142" fromLane="0" keepClear="true" to="102" toLane="0"/>
	<connection contPos="-4.0" from="143" fromLane="0" keepClear="true" to="113" toLane="0"/>
	<connection contPos="-4.0" from="144" fromLane="0" keepClear="true" to="106" toLane="0"/>
	<connection contPos="-4.0" from="145" fromLane="0" keepClear="true" to="113" toLane="0"/>
	<connection contPos="-4.0" from="146" fromLane="0" keepClear="true" to="121" toLane="0"/>
	<connection contPos="-4.0" from="147" fromLane="0" keepClear="true" to="119" toLane="0"/>
	<connection contPos="-4.0" from="148" fromLane="0" keepClear="true" to="124" toLane="0"/>
	<connection contPos="-4.0" from="149" fromLane="0" keepClear="true" to="126" toLane="0"/>
	<connection contPos="-4.0" from="150" fromLane="0" keepClear="true" to="133" toLane="0"/>
	<connection contPos="-4.0" from="151" fromLane="0" keepClear="true" to="124" toLane="0"/>
	<connection contPos="-4.0" from="152" fromLane="0" keepClear="true" to="112" toLane="0"/>
	<connection contPos="-4.0" from="153" fromLane="0" keepClear="true" to="117" toLane="0"/>
	<connection contPos="-4.0" from="154" fromLane="0" keepClear="true" to="123" toLane="0"/>
	<connection contPos="-4.0" from="155" fromLane="0" keepClear="true" to="119" toLane="0"/>
	<connection contPos="-4.0" from="156" fromLane="0" keepClear="true" to="102" toLane="0"/>
	<connection contPos="-4.0" from="157" fromLane="0" keepClear="true" to="106" toLane="0"/>
	<connection contPos="-4.0" from="158" fromLane="0" keepClear="true" to="121" toLane="0"/>
	<connection contPos="-4.0" from="159" fromLane="0" keepClear="true" to="128" toLane="0"/>
	<connection contPos="-4.0" from="160" fromLane="0" keepClear="true" to="134" toLane="0"/>
	<connection contPos="-4.0" from="161" fromLane="0" keepClear="true" to="120" toLane="0"/>
	<connection contPos="-4.0" from="162" fromLane="0" keepClear="true" to="109" toLane="0"/>
	<connection contPos="-4.0" from="163" fromLane="0" keepClear="true" to="131" toLane="0"/>
	<connection contPos="-4.0" from="164" fromLane="0" keepClear="true" to="125" toLane="0"/>
	<connection contPos="-4.0" from="165" fromLane="0" keepClear="true" to="129" toLane="0"/>
	<connection contPos="-4.0" from="166" fromLane="0" keepClear="true" to="115" toLane="0"/>
	<connection contPos="-4.0" from="167" fromLane="0" keepClear="true" to="109" toLane="0"/>
	<connection contPos="-4.0" from="168" fromLane="0" keepClear="true" to="103" toLane="0"/>
	<connection contPos="-4.0" from="169" fromLane="0" keepClear="true" to="117" toLane="0"/>
	<connection contPos="-4.0" from="170" fromLane="0" keepClear="true" to="104" toLane="0"/>
	<connection contPos="-4.0" from="171" fromLane="0" keepClear="true" to="122" toLane="0"/>
	<connection contPos="-4.0" from="172" fromLane="0" keepClear="true" to="108" toLane="0"/>
	<connection contPos="-4.0" from="173" fromLane="0" keepClear="true" to="126" toLane="0"/>
	<connection contPos="-4.0" from="174" fromLane="0" keepClear="true" to="112" toLane="0"/>
	<connection contPos="-4.0" from="175" fromLane="0" keepClear="true" to="106" toLane="0"/>
	<connection contPos="-4.0" from="176" fromLane="0" keepClear="true" to="129" toLane="0"/>
	<connection contPos="-4.0" from="177" fromLane="0" keepClear="true" to="103" toLane="0"/>
	<connection contPos="-4.0" from="178" fromLane="0" keepClear="true" to="104" toLane="0"/>
	<connection contPos="-4.0" from="179" fromLane="0" keepClear="true" to="117" toLane="0"/>
	<connection contPos="-4.0" from="180" fromLane="0" keepClear="true" to="114" toLane="0"/>
	<connection contPos="-4.0" from="181" fromLane="0" keepClear="true" to="133" toLane="0"/>
	<connection contPos="-4.0" from="182" fromLane="0" keepClear="true" to="125" toLane="0"/>
	<connection contPos="-4.0" from="183" fromLane="0" keepClear="true" to="128" toLane="0"/>
	<connection contPos="-4.0" from="184" fromLane="0" keepClear="true" to="131" toLane="0"/>
</connections>
