<routes>
	<vehicle depart="0.1" departLane="0" departPos="0" departSpeed="0.0" id="30" type="passenger">
		<route edges="158 121 157 106"/>
	</vehicle>
	<vehicle depart="0.1" departLane="0" departPos="41.479690796578794" departSpeed="7.6791" id="31" type="passenger">
		<route edges="121 157 106"/>
	</vehicle>
	<vehicle depart="0.1" departLane="0" departPos="24.566881183567627" departSpeed="2.3259" id="32" type="passenger">
		<route edges="120 158 121 157 106"/>
	</vehicle>
	<vehicle depart="0.1" departLane="0" departPos="97.0711480624306" departSpeed="0.8828" id="33" type="passenger">
		<route edges="110 160 134 171 122 155 119"/>
	</vehicle>
	<vehicle depart="0.1" departLane="0" departPos="37.27473283405605" departSpeed="1.9598" id="34" type="passenger">
		<route edges="130 170 104 137 134 171 122"/>
	</vehicle>
	<vehicle depart="0.1" departLane="0" departPos="87.20936831575042" departSpeed="2.0994" id="35" type="passenger">
		<route edges="110 160 134 171 122 155 119"/>
	</vehicle>
	<vehicle depart="0.1" departLane="0" departPos="58.58748891197405" departSpeed="0.002" id="36" type="passenger">
		<route edges="118 150 133 167 109"/>
	</vehicle>
	<vehicle depart="0.1" departLane="0" departPos="51.066079611701504" departSpeed="0.0209" id="37" type="passenger">
		<route edges="118 144 141 122 155 119 156 102"/>
	</vehicle>
	<vehicle depart="0.1" departLane="0" departPos="43.46046582025247" departSpeed="0.11" id="38" type="passenger">
		<route edges="118 141 122 155 119 156 102"/>
	</vehicle>
	<vehicle depart="0.1" departLane="0" departPos="25.66419426017783" departSpeed="1.8011" id="39" type="passenger">
		<route edges="130 170 104 137 134 171 122"/>
	</vehicle>
	<vehicle depart="0.1" departLane="0" departPos="34.83141493803288" departSpeed="0.7169" id="310" type="passenger">
		<route edges="120 158 121 157 106"/>
	</vehicle>
	<vehicle depart="0.1" departLane="0" departPos="32.50752732420333" departSpeed="6.8316" id="311" type="passenger">
		<route edges="133 177 103 165 129"/>
	</vehicle>
	<vehicle depart="0.1" departLane="0" departPos="0" departSpeed="8.0875" id="312" type="passenger">
		<route edges="137 134 171 122 155 119 156 102"/>
	</vehicle>
	<vehicle depart="0.1" departLane="0" departPos="0" departSpeed="7.2876" id="313" type="passenger">
		<route edges="147 119 156 102"/>
	</vehicle>
	<vehicle depart="0.1" departLane="0" departPos="0" departSpeed="7.2399" id="315" type="passenger">
		<route edges="133 177 103 165 129"/>
	</vehicle>
	<vehicle depart="0.1" departLane="0" departPos="0" departSpeed="7.4762" id="316" type="passenger">
		<route edges="120 158 121 157 106"/>
	</vehicle>
	<vehicle depart="0.1" departLane="0" departPos="113.0566675019099" departSpeed="0.0" id="317" type="passenger">
		<route edges="110 160 134 171 122 155 119"/>
	</vehicle>
	<vehicle depart="0.1" departLane="0" departPos="29.68625181358928" departSpeed="0.0003" id="318" type="passenger">
		<route edges="127 173 126 178 104 137 134 171"/>
	</vehicle>
	<vehicle depart="0.1" departLane="0" departPos="104.2161785249425" departSpeed="7.3677" id="319" type="passenger">
		<route edges="111 146 121 157 106"/>
	</vehicle>
	<vehicle depart="0.1" departLane="0" departPos="0" departSpeed="9.0952" id="320" type="passenger">
		<route edges="104 162 109"/>
	</vehicle>
	<vehicle depart="0.1" departLane="0" departPos="26.07156573091977" departSpeed="7.7807" id="321" type="passenger">
		<route edges="121 157 106"/>
	</vehicle>
	<vehicle depart="0.1" departLane="0" departPos="9.747095686575939" departSpeed="6.918" id="322" type="passenger">
		<route edges="177 103 164 125 139 115"/>
	</vehicle>
	<vehicle depart="0.1" departLane="0" departPos="105.42977584658625" departSpeed="0.1389" id="323" type="passenger">
		<route edges="110 160 134 171 122 155 119"/>
	</vehicle>
	<vehicle depart="0.1" departLane="0" departPos="37.18812150312915" departSpeed="0.0" id="324" type="passenger">
		<route edges="127 173 126 178 104 137 134 171 122"/>
	</vehicle>
	<vehicle depart="0.1" departLane="0" departPos="0" departSpeed="7.7232" id="325" type="passenger">
		<route edges="134 171 122 155 119 156 102"/>
	</vehicle>
	<vehicle depart="0.1" departLane="0" departPos="66.09053675779326" departSpeed="0.0" id="326" type="passenger">
		<route edges="118 150 133 167 109"/>
	</vehicle>
	<vehicle depart="0.1" departLane="0" departPos="104.2161785249425" departSpeed="7.6441" id="327" type="passenger">
		<route edges="111 146 121 157 106"/>
	</vehicle>
	<vehicle depart="0.1" departLane="0" departPos="75.8624413670351" departSpeed="3.2973" id="328" type="passenger">
		<route edges="110 160 134 171 122 155 119"/>
	</vehicle>
	<vehicle depart="0.1" departLane="0" departPos="14.451731575086885" departSpeed="8.6211" id="329" type="passenger">
		<route edges="114 138 120 158 121 157 106"/>
	</vehicle>
	<vehicle depart="0.1" departLane="0" departPos="22.18075893127859" departSpeed="0.0042" id="330" type="passenger">
		<route edges="127 173 126 178 104 137 134 171"/>
	</vehicle>
	<vehicle depart="0.1" departLane="0" departPos="35.569315085935976" departSpeed="0.3993" id="331" type="passenger">
		<route edges="118 141 122 155 119 156 102"/>
	</vehicle>
	<vehicle depart="0.1" departLane="0" departPos="6.994167401042301" departSpeed="7.059" id="333" type="passenger">
		<route edges="136 122 155 119 156 102"/>
	</vehicle>
	<vehicle depart="0.1" departLane="0" departPos="104.2161785249425" departSpeed="7.3994" id="334" type="passenger">
		<route edges="111 147 119 156 102"/>
	</vehicle>
	<vehicle depart="0.1" departLane="0" departPos="88.04139710672928" departSpeed="0.0068" id="335" type="passenger">
		<route edges="101 161 120 158 121 157 106"/>
	</vehicle>
	<vehicle depart="0.1" departLane="0" departPos="63.41911307346308" departSpeed="4.2332" id="336" type="passenger">
		<route edges="110 160 134 171 122 155 119"/>
	</vehicle>
	<vehicle depart="0.1" departLane="0" departPos="60.50625135762856" departSpeed="6.8727" id="337" type="passenger">
		<route edges="105 181 133 177 103 164 125 139 115"/>
	</vehicle>
	<vehicle depart="0.1" departLane="0" departPos="0" departSpeed="7.0396" id="338" type="passenger">
		<route edges="135 114 138 120 158 121 157 106"/>
	</vehicle>
	<vehicle depart="0.1" departLane="0" departPos="0" departSpeed="1.8004" id="339" type="passenger">
		<route edges="130 170 104 137 134 171 122"/>
	</vehicle>
	<vehicle depart="0.1" departLane="0" departPos="21.98349998018746" departSpeed="7.8837" id="340" type="passenger">
		<route edges="126 178 104 137 134 171 122 155 119"/>
	</vehicle>
	<vehicle depart="0.1" departLane="0" departPos="50.63399871546697" departSpeed="7.0683" id="341" type="passenger">
		<route edges="111 147 119 156 102"/>
	</vehicle>
	<vehicle depart="0.1" departLane="0" departPos="27.0815841976375" departSpeed="0.9757" id="342" type="passenger">
		<route edges="118 141 122 155 119 156 102"/>
	</vehicle>
	<vehicle depart="0.1" departLane="0" departPos="49.33992759388311" departSpeed="5.3866" id="343" type="passenger">
		<route edges="110 160 134 171 122 155 119"/>
	</vehicle>
	<vehicle depart="0.1" departLane="0" departPos="46.204921618652335" departSpeed="6.7657" id="344" type="passenger">
		<route edges="105 181 133 177 103 164 125 139 115"/>
	</vehicle>
	<vehicle depart="0.1" departLane="0" departPos="0" departSpeed="0.0416" id="345" type="passenger">
		<route edges="127 173 126 178 104 137 134 171"/>
	</vehicle>
	<vehicle depart="0.1" departLane="0" departPos="57.12482503651141" departSpeed="6.9387" id="346" type="passenger">
		<route edges="132 135 114 142 102"/>
	</vehicle>
	<vehicle depart="0.1" departLane="0" departPos="0" departSpeed="7.2453" id="348" type="passenger">
		<route edges="126 178 104 137 134 171 122 155 119"/>
	</vehicle>
	<vehicle depart="0.1" departLane="0" departPos="36.58336722379534" departSpeed="6.7458" id="349" type="passenger">
		<route edges="111 146 121 157 106"/>
	</vehicle>
	<vehicle depart="0.1" departLane="0" departPos="17.933520817173353" departSpeed="1.4922" id="350" type="passenger">
		<route edges="118 141 122 155 119 156 102"/>
	</vehicle>
	<vehicle depart="0.1" departLane="0" departPos="0" departSpeed="6.586" id="351" type="passenger">
		<route edges="105 181 133 177 103 164 125 139 115"/>
	</vehicle>
	<vehicle depart="0.1" departLane="0" departPos="35.16977251240457" departSpeed="5.9371" id="352" type="passenger">
		<route edges="110 160 134 171 122 155 119"/>
	</vehicle>
	<vehicle depart="0.1" departLane="0" departPos="0" departSpeed="7.5673" id="354" type="passenger">
		<route edges="132 135 114 142 102"/>
	</vehicle>
	<vehicle depart="0.1" departLane="0" departPos="23.39689010899748" departSpeed="6.1202" id="355" type="passenger">
		<route edges="111 146 121 157 106"/>
	</vehicle>
	<vehicle depart="0.1" departLane="0" departPos="0" departSpeed="7.4007" id="356" type="passenger">
		<route edges="149 126 178 104 137 134 171 122 155 119"/>
	</vehicle>
	<vehicle depart="0.1" departLane="0" departPos="0" departSpeed="5.8663" id="357" type="passenger">
		<route edges="110 160 134 171 122 155 119"/>
	</vehicle>
	<vehicle depart="0.1" departLane="0" departPos="0" departSpeed="1.6372" id="359" type="passenger">
		<route edges="130 170 104 137 134 171 122"/>
	</vehicle>
	<vehicle depart="0.1" departLane="0" departPos="0" departSpeed="1.8407" id="360" type="passenger">
		<route edges="118 141 122 155 119 156 102"/>
	</vehicle>
	<vehicle depart="0.1" departLane="0" departPos="0" departSpeed="0.356" id="361" type="passenger">
		<route edges="127 173 126 178 104 137 134 171"/>
	</vehicle>
	<vehicle depart="0.1" departLane="0" departPos="0" departSpeed="6.9452" id="362" type="passenger">
		<route edges="132 135 114 142 102"/>
	</vehicle>
	<vehicle depart="0.1" departLane="0" departPos="0" departSpeed="5.1853" id="363" type="passenger">
		<route edges="111 147 119 156 102"/>
	</vehicle>
	<vehicle depart="0.1" departLane="0" departPos="0" departSpeed="6.3145" id="364" type="passenger">
		<route edges="116 149 126 178 104 137 134 171 122 155"/>
	</vehicle>
	<vehicle depart="0.1" departLane="0" departPos="0" departSpeed="4.8142" id="365" type="passenger">
		<route edges="110 160 134 171 122 155 119"/>
	</vehicle>
	<vehicle depart="0.1" departLane="0" departPos="0" departSpeed="4.0745" id="366" type="passenger">
		<route edges="101 161 120 158 121 157 106"/>
	</vehicle>
	<vehicle depart="0.1" departLane="0" departPos="0" departSpeed="3.4996" id="367" type="passenger">
		<route edges="132 135 114 142 102"/>
	</vehicle>
	<vehicle depart="0.1" departLane="0" departPos="0" departSpeed="2.4632" id="368" type="passenger">
		<route edges="111 147 119 156 102"/>
	</vehicle>
	<vehicle depart="0.1" departLane="0" departPos="0" departSpeed="3.2541" id="369" type="passenger">
		<route edges="116 149 126 178 104 137 134 171 122"/>
	</vehicle>
	<vehicle depart="0.1" departLane="0" departPos="0" departSpeed="1.8751" id="370" type="passenger">
		<route edges="110 160 134 171 122 155 119"/>
	</vehicle>
	<vehicle depart="0.1" departLane="0" departPos="0" departSpeed="8.3483" id="371" type="passenger">
		<route edges="105 136 122 155 119 156 102"/>
	</vehicle>
</routes>
