<!-- generated on 2020-12-18 16:05:11.990116 by ipykernel_launcher.py v1_2_0+5214-53edc58fcd
-->
<edges>
	<edge from="1" function="normal" id="101" length="90.64695050357041" numLanes="1" priority="1" speed="36.11111111111111" spreadType="center" to="2">
		<lane allow="moped bicycle pedestrian custom1 trailer evehicle rail_urban ship private truck vip custom2 authority delivery rail_electric taxi tram army hov coach motorcycle passenger bus rail emergency" index="0" length="90.64695050357041" shape="-100.21494999999999,-158.99644999999998 -72.00534999999999,-123.52314999999999 -43.795649999999995,-88.04765" speed="36.11111111111111" width="2.5000244198807238"/>
	</edge>
	<edge from="3" function="normal" id="102" length="90.64503383974183" numLanes="1" priority="1" speed="36.11111111111111" spreadType="center" to="4">
		<lane allow="moped bicycle pedestrian custom1 trailer evehicle rail_urban ship private truck vip custom2 authority delivery rail_electric taxi tram army hov coach motorcycle passenger bus rail emergency" index="0" length="90.64503383974183" shape="-45.75255,-86.49375 -73.96209999999999,-121.96709999999999 -102.1716,-157.4403" speed="36.11111111111111" width="2.4974506561692036"/>
	</edge>
	<edge from="5" function="normal" id="103" length="33.30171480875132" numLanes="1" priority="1" speed="36.11111111111111" spreadType="center" to="6">
		<lane allow="moped bicycle pedestrian custom1 trailer evehicle rail_urban ship private truck vip custom2 authority delivery rail_electric taxi tram army hov coach motorcycle passenger bus rail emergency" index="0" length="33.30171480875132" shape="-10.00995,-20.94995 -23.390349999999998,-11.0651 -36.79545,-1.16255" speed="36.11111111111111" width="2.498827072848382"/>
	</edge>
	<edge from="7" function="normal" id="104" length="33.3705713652046" numLanes="1" priority="1" speed="36.11111111111111" spreadType="center" to="8">
		<lane allow="moped bicycle pedestrian custom1 trailer evehicle rail_urban ship private truck vip custom2 authority delivery rail_electric taxi tram army hov coach motorcycle passenger bus rail emergency" index="0" length="33.3705713652046" shape="-38.31465,-3.1469 -24.875799999999998,-13.075949999999999 -11.4742,-22.9758" speed="36.11111111111111" width="2.499508575700432"/>
	</edge>
	<edge from="9" function="normal" id="105" length="67.89796561749162" numLanes="1" priority="1" speed="36.11111111111111" spreadType="center" to="10">
		<lane allow="moped bicycle pedestrian custom1 trailer evehicle rail_urban ship private vip custom2 authority delivery rail_electric taxi tram army hov coach motorcycle passenger rail emergency" index="0" length="67.89796561749162" shape="106.20349999999999,-88.89235 97.17645,-85.5364 92.0344,-83.38284999999999 45.645799999999994,-58.390950000000004" speed="36.11111111111111" width="2.499309666687981"/>
	</edge>
	<edge from="11" function="normal" id="106" length="68.2349291500727" numLanes="1" priority="1" speed="36.11111111111111" spreadType="center" to="12">
		<lane allow="moped bicycle pedestrian custom1 trailer evehicle rail_urban ship private vip custom2 authority delivery rail_electric taxi tram army hov coach motorcycle passenger rail emergency" index="0" length="68.2349291500727" shape="44.455799999999996,-60.5884 91.01490000000001,-85.6639 96.24780000000001,-87.85740000000001 105.31954999999999,-91.23079999999999" speed="36.11111111111111" width="2.499243285476626"/>
	</edge>
	<edge from="13" function="normal" id="107" length="5.5331939737886895" numLanes="1" priority="1" speed="36.11111111111111" spreadType="center" to="14">
		<lane allow="moped bicycle pedestrian custom1 trailer evehicle rail_urban ship private truck vip custom2 authority delivery rail_electric taxi tram army hov coach motorcycle passenger bus rail emergency" index="0" length="5.5331939737886895" shape="-70.34530000000001,-28.287599999999998 -68.08345,-29.8777 -65.81880000000001,-31.4699" speed="36.11111111111111" width="2.498960327816347"/>
	</edge>
	<edge from="15" function="normal" id="108" length="5.568050446587939" numLanes="1" priority="1" speed="36.11111111111111" spreadType="center" to="16">
		<lane allow="moped bicycle pedestrian custom1 trailer evehicle rail_urban ship private truck vip custom2 authority delivery rail_electric taxi tram army hov coach motorcycle passenger bus rail emergency" index="0" length="5.568050446587939" shape="-64.35305,-29.44555 -66.6457,-27.8325 -68.9075,-26.2424" speed="36.11111111111111" width="2.5000223758998623"/>
	</edge>
	<edge from="17" function="normal" id="109" length="117.83003675088031" numLanes="1" priority="1" speed="36.11111111111111" spreadType="center" to="18">
		<lane allow="moped bicycle pedestrian custom1 trailer evehicle rail_urban ship private vip custom2 authority delivery rail_electric taxi tram army hov coach motorcycle passenger rail emergency" index="0" length="117.83003675088031" shape="0.6971,-20.2115 1.74285,-17.90605 3.9775,-12.2065 5.6879,-6.86195 7.0395,-1.4155000000000002 7.8652,3.1008 8.34395,7.66695 8.8026,18.882199999999997 9.671,30.58495 10.07765,37.715900000000005 10.0528,42.8173 9.6903,47.3939 9.04555,51.42345 7.95815,55.8838 6.5441,60.25185 4.64335,64.986 2.01225,70.5138 -6.222799999999999,85.78195 -9.378350000000001,92.18965" speed="36.11111111111111" width="2.498555678787246"/>
	</edge>
	<edge from="19" function="normal" id="110" length="115.57731679290153" numLanes="1" priority="1" speed="36.11111111111111" spreadType="center" to="20">
		<lane allow="moped bicycle pedestrian custom1 trailer evehicle rail_urban ship private vip custom2 authority delivery rail_electric taxi tram army hov coach motorcycle passenger rail emergency" index="0" length="115.57731679290153" shape="-11.63645,91.1174 -8.50265,84.7474 -0.34359999999999996,69.63055 2.24695,64.22455 4.11475,59.6174 5.50225,55.380700000000004 6.569050000000001,51.060249999999996 7.199999999999999,47.1704 7.555,42.73415 7.5786999999999995,37.7661 7.176550000000001,30.75195 6.31295,19.149 5.8652999999999995,8.0552 5.414,3.61855 4.621449999999999,-0.7702500000000001 3.3092500000000005,-6.08845 1.64495,-11.306000000000001 -0.53935,-16.8853 -1.5441,-19.106299999999997" speed="36.11111111111111" width="2.499618210847409"/>
	</edge>
	<edge from="21" function="normal" id="111" length="104.2161785249425" numLanes="1" priority="1" speed="36.11111111111111" spreadType="center" to="22">
		<lane allow="moped bicycle pedestrian custom1 trailer evehicle rail_urban ship private vip custom2 authority delivery rail_electric taxi tram army hov coach motorcycle passenger rail emergency" index="0" length="104.2161785249425" shape="106.7058,-159.1154 95.6719,-155.6029 89.02,-153.27435 82.04965,-150.36995000000002 73.38104999999999,-146.32670000000002 54.98465,-136.96445 12.73105,-114.54955" speed="36.11111111111111" width="2.4992877105287454"/>
	</edge>
	<edge from="23" function="normal" id="112" length="104.6843283562135" numLanes="1" priority="1" speed="36.11111111111111" spreadType="center" to="24">
		<lane allow="moped bicycle pedestrian custom1 trailer evehicle rail_urban ship private vip custom2 authority delivery rail_electric taxi tram army hov coach motorcycle passenger rail emergency" index="0" length="104.6843283562135" shape="11.527899999999999,-116.74029999999999 53.90725,-139.22115000000002 72.37004999999999,-148.61495 81.10034999999999,-152.68335000000002 88.14269999999999,-155.6149 94.85865,-157.96710000000002 105.93145,-161.4924" speed="36.11111111111111" width="2.500001865999311"/>
	</edge>
	<edge from="25" function="normal" id="113" length="27.629857277478052" numLanes="1" priority="1" speed="36.11111111111111" spreadType="center" to="26">
		<lane allow="moped bicycle pedestrian custom1 trailer evehicle rail_urban ship private truck vip custom2 authority delivery rail_electric taxi tram army hov coach motorcycle passenger bus rail emergency" index="0" length="27.629857277478052" shape="-45.64485,-76.20315 -56.898250000000004,-68.17765 -68.14045,-60.1608" speed="36.11111111111111" width="2.49907968860539"/>
	</edge>
	<edge from="27" function="normal" id="114" length="27.638337476358384" numLanes="1" priority="1" speed="36.11111111111111" spreadType="center" to="28">
		<lane allow="moped bicycle pedestrian custom1 trailer evehicle rail_urban ship private truck vip custom2 authority delivery rail_electric taxi tram army hov coach motorcycle passenger bus rail emergency" index="0" length="27.638337476358384" shape="-69.6104,-62.18235 -58.34975,-70.21315000000001 -47.10795,-78.22970000000001" speed="36.11111111111111" width="2.499065955512172"/>
	</edge>
	<edge from="29" function="normal" id="115" length="23.594073477130827" numLanes="1" priority="1" speed="36.11111111111111" spreadType="center" to="30">
		<lane allow="moped bicycle pedestrian custom1 trailer evehicle rail_urban ship private truck vip custom2 authority delivery rail_electric taxi tram army hov coach motorcycle passenger bus rail emergency" index="0" length="23.594073477130827" shape="-81.69325,47.2487 -88.58234999999999,56.84085 -95.4572,66.41205" speed="36.11111111111111" width="2.4999492814855273"/>
	</edge>
	<edge from="31" function="normal" id="116" length="23.57050579248643" numLanes="1" priority="1" speed="36.11111111111111" spreadType="center" to="32">
		<lane allow="moped bicycle pedestrian custom1 trailer evehicle rail_urban ship private truck vip custom2 authority delivery rail_electric taxi tram army hov coach motorcycle passenger bus rail emergency" index="0" length="23.57050579248643" shape="-97.48765,64.9536 -90.6128,55.382400000000004 -83.73695000000001,45.80975" speed="36.11111111111111" width="2.499025814192415"/>
	</edge>
	<edge from="33" function="normal" id="117" length="69.63460567850883" numLanes="1" priority="1" speed="36.11111111111111" spreadType="center" to="34">
		<lane allow="moped bicycle pedestrian custom1 trailer evehicle rail_urban ship private vip custom2 authority delivery rail_electric taxi tram army hov coach motorcycle passenger rail emergency" index="0" length="69.63460567850883" shape="43.10935,-48.8681 43.30045,-48.3835 44.993700000000004,-43.59255 47.839749999999995,-33.306349999999995 49.6869,-25.3876 50.952749999999995,-18.386400000000002 51.775549999999996,-11.83135 52.13195,-6.76235 52.0918,-1.68115 51.49355,6.42805 50.949349999999995,14.031649999999999 50.90805,19.621450000000003" speed="36.11111111111111" width="2.4999394492667193"/>
	</edge>
	<edge from="35" function="normal" id="118" length="68.68030070308794" numLanes="1" priority="1" speed="36.11111111111111" spreadType="center" to="36">
		<lane allow="moped bicycle pedestrian custom1 trailer evehicle rail_urban ship private vip custom2 authority delivery rail_electric taxi tram army hov coach motorcycle passenger rail emergency" index="0" length="68.68030070308794" shape="48.4081,19.6172 48.44815,14.02525 48.98395,6.42805 49.5857,-1.58845 49.638,-6.5446 49.2968,-11.49635 48.4923,-17.9405 47.249449999999996,-24.83115 45.4294,-32.64205 42.62455,-42.794250000000005 40.9653,-47.491550000000004 40.788399999999996,-47.9407" speed="36.11111111111111" width="2.498709570958584"/>
	</edge>
	<edge from="37" function="normal" id="119" length="40.50131065460421" numLanes="1" priority="1" speed="36.11111111111111" spreadType="center" to="38">
		<lane allow="moped bicycle pedestrian custom1 trailer evehicle rail_urban ship private truck vip custom2 authority delivery rail_electric taxi tram army hov coach motorcycle passenger bus rail emergency" index="0" length="40.50131065460421" shape="-0.03714999999999996,-106.90105 -16.88645,-95.66395 -33.732299999999995,-84.429" speed="36.11111111111111" width="2.499128143973414"/>
	</edge>
	<edge from="39" function="normal" id="120" length="40.50988080578237" numLanes="1" priority="1" speed="36.11111111111111" spreadType="center" to="40">
		<lane allow="moped bicycle pedestrian custom1 trailer evehicle rail_urban ship private truck vip custom2 authority delivery rail_electric taxi tram army hov coach motorcycle passenger bus rail emergency" index="0" length="40.50988080578237" shape="-35.09985,-86.5211 -18.27355,-97.7438 -1.3976000000000002,-108.99795" speed="36.11111111111111" width="2.499922888810766"/>
	</edge>
	<edge from="41" function="normal" id="121" length="50.3787872106852" numLanes="1" priority="1" speed="36.11111111111111" spreadType="center" to="42">
		<lane allow="moped bicycle pedestrian custom1 trailer evehicle rail_urban ship private truck vip custom2 authority delivery rail_electric taxi tram army hov coach motorcycle passenger bus rail emergency" index="0" length="50.3787872106852" shape="10.728449999999999,-106.20785000000001 23.545650000000002,-84.50319999999999 36.344300000000004,-62.82755" speed="36.11111111111111" width="2.4992767373782367"/>
	</edge>
	<edge from="43" function="normal" id="122" length="50.36635266150547" numLanes="1" priority="1" speed="36.11111111111111" spreadType="center" to="44">
		<lane allow="moped bicycle pedestrian custom1 trailer evehicle rail_urban ship private truck vip custom2 authority delivery rail_electric taxi tram army hov coach motorcycle passenger bus rail emergency" index="0" length="50.36635266150547" shape="34.1873,-61.56585 21.3929,-83.232 8.5777,-104.9354" speed="36.11111111111111" width="2.4988544515437474"/>
	</edge>
	<edge from="45" function="normal" id="123" length="12.505353885795394" numLanes="1" priority="1" speed="36.11111111111111" spreadType="center" to="46">
		<lane allow="moped bicycle pedestrian custom1 trailer evehicle rail_urban ship private truck vip custom2 authority delivery rail_electric taxi tram army hov coach motorcycle passenger bus rail emergency" index="0" length="12.505353885795394" shape="-64.41975,-40.10825 -67.9646,-45.2626 -71.5051,-50.4127" speed="36.11111111111111" width="2.499123850472398"/>
	</edge>
	<edge from="47" function="normal" id="124" length="12.539628872301991" numLanes="1" priority="1" speed="36.11111111111111" spreadType="center" to="48">
		<lane allow="moped bicycle pedestrian custom1 trailer evehicle rail_urban ship private truck vip custom2 authority delivery rail_electric taxi tram army hov coach motorcycle passenger bus rail emergency" index="0" length="12.539628872301991" shape="-69.4477,-51.83095 -65.90475,-46.679249999999996 -62.342650000000006,-41.498450000000005" speed="36.11111111111111" width="2.4975881105578575"/>
	</edge>
	<edge from="49" function="normal" id="125" length="36.66313775817494" numLanes="1" priority="1" speed="36.11111111111111" spreadType="center" to="50">
		<lane allow="moped bicycle pedestrian custom1 trailer evehicle rail_urban ship private vip custom2 authority delivery rail_electric taxi tram army hov coach motorcycle passenger rail emergency" index="0" length="36.66313775817494" shape="-48.25005,8.107 -55.46085,14.326799999999999 -59.8203,18.48775 -63.560550000000006,22.55275 -67.33305,27.25215 -72.90594999999999,35.02445" speed="36.11111111111111" width="2.499946353424411"/>
	</edge>
	<edge from="51" function="normal" id="126" length="37.29609153047245" numLanes="1" priority="1" speed="36.11111111111111" spreadType="center" to="52">
		<lane allow="moped bicycle pedestrian custom1 trailer evehicle rail_urban ship private vip custom2 authority delivery rail_electric taxi tram army hov coach motorcycle passenger rail emergency" index="0" length="37.29609153047245" shape="-74.93639999999999,33.5665 -69.3021,25.71205 -65.4474,20.9137 -61.61895,16.75215 -57.17065,12.5029 -49.85035,6.18685" speed="36.11111111111111" width="2.4993331670667787"/>
	</edge>
	<edge from="53" function="normal" id="127" length="39.78815765442747" numLanes="1" priority="1" speed="36.11111111111111" spreadType="center" to="54">
		<lane allow="moped bicycle pedestrian custom1 trailer evehicle rail_urban ship private truck vip custom2 authority delivery rail_electric taxi tram army hov coach motorcycle passenger bus rail emergency" index="0" length="39.78815765442747" shape="-107.77584999999999,2.76175 -95.36275,18.289 -82.9316,33.840050000000005" speed="36.11111111111111" width="2.4993294160634387"/>
	</edge>
	<edge from="55" function="normal" id="128" length="39.7808248380312" numLanes="1" priority="1" speed="36.11111111111111" spreadType="center" to="56">
		<lane allow="moped bicycle pedestrian custom1 trailer evehicle rail_urban ship private truck vip custom2 authority delivery rail_electric taxi tram army hov coach motorcycle passenger bus rail emergency" index="0" length="39.7808248380312" shape="-84.88785,35.3946 -97.31545,19.850050000000003 -109.72855,4.32285" speed="36.11111111111111" width="2.4991139089685293"/>
	</edge>
	<edge from="57" function="normal" id="129" length="89.77670667423382" numLanes="1" priority="1" speed="36.11111111111111" spreadType="center" to="58">
		<lane allow="moped bicycle pedestrian custom1 trailer evehicle rail_urban ship private vip custom2 authority delivery rail_electric taxi tram army hov coach motorcycle passenger rail emergency" index="0" length="89.77670667423382" shape="-37.754450000000006,8.431799999999999 -36.225300000000004,11.678450000000002 -34.6161,16.006050000000002 -33.465599999999995,19.9451 -32.79375,23.47195 -32.44625,27.560499999999998 -32.48005,31.663800000000002 -32.87315,35.74875 -33.7462,40.80415 -35.24365,47.3035 -37.11575,53.7049 -39.346050000000005,59.99065 -42.2941,67.09955 -44.70955,72.19975 -47.47175,77.12085 -52.149550000000005,84.4828 -56.81075,91.8553" speed="36.11111111111111" width="2.4980978703805827"/>
	</edge>
	<edge from="59" function="normal" id="130" length="87.22346439940128" numLanes="1" priority="1" speed="36.11111111111111" spreadType="center" to="60">
		<lane allow="moped bicycle pedestrian custom1 trailer evehicle rail_urban ship private vip custom2 authority delivery rail_electric taxi tram army hov coach motorcycle passenger rail emergency" index="0" length="87.22346439940128" shape="-58.94,90.54554999999999 -54.3451,83.27295000000001 -49.742000000000004,76.045 -47.04285,71.26825 -44.68045,66.31424999999999 -41.7855,59.3682 -39.59365,53.239850000000004 -37.7495,47.00255 -36.26935,40.6667 -35.39965,35.76375 -34.99465,31.84035 -34.9353,27.909399999999998 -35.2444,24.0001 -35.8673,20.6456 -36.96515,16.862000000000002 -38.51265,12.6856 -39.9823,9.564" speed="36.11111111111111" width="2.4999787599097716"/>
	</edge>
	<edge from="61" function="normal" id="131" length="57.10408599786319" numLanes="1" priority="1" speed="36.11111111111111" spreadType="center" to="62">
		<lane allow="moped bicycle pedestrian custom1 trailer evehicle rail_urban ship private truck vip custom2 authority delivery rail_electric taxi tram army hov coach motorcycle passenger bus rail emergency" index="0" length="57.10408599786319" shape="-80.00055,-51.7047 -103.23904999999999,-35.1348 -126.4958,-18.552500000000002" speed="36.11111111111111" width="2.499987809970276"/>
	</edge>
	<edge from="63" function="normal" id="132" length="57.12482503651141" numLanes="1" priority="1" speed="36.11111111111111" spreadType="center" to="64">
		<lane allow="moped bicycle pedestrian custom1 trailer evehicle rail_urban ship private truck vip custom2 authority delivery rail_electric taxi tram army hov coach motorcycle passenger bus rail emergency" index="0" length="57.12482503651141" shape="-127.94720000000001,-20.588099999999997 -104.6904,-37.17035 -81.43475000000001,-53.7519" speed="36.11111111111111" width="2.4992731043245326"/>
	</edge>
	<edge from="65" function="normal" id="133" length="37.33048655600858" numLanes="1" priority="1" speed="36.11111111111111" spreadType="center" to="66">
		<lane allow="moped bicycle pedestrian custom1 trailer evehicle rail_urban ship private truck vip custom2 authority delivery rail_electric taxi tram army hov coach motorcycle passenger bus rail emergency" index="0" length="37.33048655600858" shape="32.66915,-50.418949999999995 17.23775,-39.8913 1.8306,-29.3821" speed="36.11111111111111" width="2.4987495472735946"/>
	</edge>
	<edge from="67" function="normal" id="134" length="37.37680050371339" numLanes="1" priority="1" speed="36.11111111111111" spreadType="center" to="68">
		<lane allow="moped bicycle pedestrian custom1 trailer evehicle rail_urban ship private truck vip custom2 authority delivery rail_electric taxi tram army hov coach motorcycle passenger bus rail emergency" index="0" length="37.37680050371339" shape="0.39325,-31.42615 15.82885,-41.956500000000005 31.26965,-52.4897" speed="36.11111111111111" width="2.49837541214286"/>
	</edge>
	<edge from="64" function="normal" id="135" length="14.521974401014383" numLanes="1" priority="1" speed="36.11111111111111" spreadType="center" to="27">
		<lane allow="moped bicycle pedestrian custom1 trailer evehicle rail_urban ship private truck vip custom2 authority delivery rail_electric taxi tram army hov coach motorcycle passenger bus rail emergency" index="0" length="14.521974401014383" shape="-81.43475000000001,-53.7519 -75.5122,-57.9749 -69.6104,-62.18235" speed="36.11111111111111" width="2.4992731043245326"/>
	</edge>
	<edge from="10" function="normal" id="136" length="13.506826857324098" numLanes="1" priority="1" speed="36.11111111111111" spreadType="center" to="43">
		<lane allow="moped bicycle pedestrian custom1 trailer evehicle rail_urban ship private vip custom2 authority delivery rail_electric taxi tram army hov coach motorcycle passenger rail emergency" index="0" length="13.506826857324098" shape="45.645799999999994,-58.390950000000004 44.27235,-57.73775 42.85275,-57.2624 41.3771,-57.01715 39.883849999999995,-57.0726 38.44435,-57.470150000000004 37.135400000000004,-58.19095 35.9964,-59.16045 35.02535,-60.29995 34.1873,-61.56585" speed="36.11111111111111" width="2.4988544515437474"/>
	</edge>
	<edge from="8" function="normal" id="137" length="14.568984518071701" numLanes="1" priority="1" speed="36.11111111111111" spreadType="center" to="67">
		<lane allow="moped bicycle pedestrian custom1 trailer evehicle rail_urban ship private vip custom2 authority delivery rail_electric taxi tram army hov coach motorcycle passenger rail emergency" index="0" length="14.568984518071701" shape="-11.4742,-22.9758 -1.45505,-30.1555 0.39325,-31.42615" speed="36.11111111111111" width="2.49837541214286"/>
	</edge>
	<edge from="28" function="normal" id="138" length="14.592671767751328" numLanes="1" priority="1" speed="36.11111111111111" spreadType="center" to="39">
		<lane allow="moped bicycle pedestrian custom1 trailer evehicle rail_urban ship private vip custom2 authority delivery rail_electric taxi tram army hov coach motorcycle passenger rail emergency" index="0" length="14.592671767751328" shape="-47.10795,-78.22970000000001 -36.0526,-85.88465 -35.09985,-86.5211" speed="36.11111111111111" width="2.499065955512172"/>
	</edge>
	<edge from="50" function="normal" id="139" length="15.054864010190101" numLanes="1" priority="1" speed="36.11111111111111" spreadType="center" to="29">
		<lane allow="moped bicycle pedestrian custom1 trailer evehicle rail_urban ship private truck vip custom2 authority delivery rail_electric taxi tram army hov coach motorcycle passenger bus rail emergency" index="0" length="15.054864010190101" shape="-72.90594999999999,35.02445 -77.3004,41.138549999999995 -81.69325,47.2487" speed="36.11111111111111" width="2.499974561870581"/>
	</edge>
	<edge from="42" function="normal" id="140" length="14.598135450187266" numLanes="1" priority="1" speed="36.11111111111111" spreadType="center" to="65">
		<lane allow="moped bicycle pedestrian custom1 trailer evehicle rail_urban ship private vip custom2 authority delivery rail_electric taxi tram army hov coach motorcycle passenger rail emergency" index="0" length="14.598135450187266" shape="36.344300000000004,-62.82755 37.01725,-61.5214 37.507000000000005,-60.14755 37.76155,-58.7125 37.727050000000006,-57.25645 37.38615,-55.84085 36.769149999999996,-54.5209 35.93615,-53.3242 34.94715,-52.25165 33.8493,-51.28995 32.66915,-50.418949999999995" speed="36.11111111111111" width="2.4987495472735946"/>
	</edge>
	<edge from="36" function="normal" id="141" length="15.153942379806146" numLanes="1" priority="1" speed="36.11111111111111" spreadType="center" to="43">
		<lane allow="moped bicycle pedestrian custom1 trailer evehicle rail_urban ship private vip custom2 authority delivery rail_electric taxi tram army hov coach motorcycle passenger rail emergency" index="0" length="15.153942379806146" shape="40.788399999999996,-47.9407 38.67885,-52.9163 36.302099999999996,-57.77075 34.1873,-61.56585" speed="36.11111111111111" width="2.498709570958584"/>
	</edge>
	<edge from="28" function="normal" id="142" length="9.705731630031032" numLanes="1" priority="1" speed="36.11111111111111" spreadType="center" to="3">
		<lane allow="moped bicycle pedestrian custom1 trailer evehicle rail_urban ship private vip custom2 authority delivery rail_electric taxi tram army hov coach motorcycle passenger rail emergency" index="0" length="9.705731630031032" shape="-47.10795,-78.22970000000001 -46.261,-78.8989 -45.49135,-79.65620000000001 -44.84935,-80.5233 -44.3969,-81.50075000000001 -44.20315,-82.55959999999999 -44.29175,-83.6323 -44.62295,-84.6585 -45.128699999999995,-85.61215 -45.75255,-86.49375" speed="36.11111111111111" width="2.4974506561692036"/>
	</edge>
	<edge from="38" function="normal" id="143" length="14.476784247747233" numLanes="1" priority="1" speed="36.11111111111111" spreadType="center" to="25">
		<lane allow="moped bicycle pedestrian custom1 trailer evehicle rail_urban ship private vip custom2 authority delivery rail_electric taxi tram army hov coach motorcycle passenger rail emergency" index="0" length="14.476784247747233" shape="-33.732299999999995,-84.429 -34.65325,-83.81305 -45.64485,-76.20315" speed="36.11111111111111" width="2.499128143973414"/>
	</edge>
	<edge from="36" function="normal" id="144" length="14.697810507253312" numLanes="1" priority="1" speed="36.11111111111111" spreadType="center" to="11">
		<lane allow="moped bicycle pedestrian custom1 trailer evehicle rail_urban ship private vip custom2 authority delivery rail_electric taxi tram army hov coach motorcycle passenger rail emergency" index="0" length="14.697810507253312" shape="40.788399999999996,-47.9407 40.3013,-49.32605 39.9293,-50.74725 39.70465,-52.19855 39.66975,-53.6662 39.8689,-55.1205 40.3459,-56.50805 41.08905,-57.7726 42.05615,-58.875550000000004 43.191050000000004,-59.806650000000005 44.455799999999996,-60.5884" speed="36.11111111111111" width="2.498709570958584"/>
	</edge>
	<edge from="2" function="normal" id="145" length="13.808414029552626" numLanes="1" priority="1" speed="36.11111111111111" spreadType="center" to="25">
		<lane allow="moped bicycle pedestrian custom1 trailer evehicle rail_urban ship private vip custom2 authority delivery rail_electric taxi tram army hov coach motorcycle passenger rail emergency" index="0" length="13.808414029552626" shape="-43.795649999999995,-88.04765 -42.952349999999996,-86.85640000000001 -42.2495,-85.5305 -41.76975,-84.0449 -41.63145,-82.43625 -41.91215,-80.83125000000001 -42.5685,-79.37559999999999 -43.47485,-78.13495 -44.52575,-77.09 -45.64485,-76.20315" speed="36.11111111111111" width="2.5000713789810165"/>
	</edge>
	<edge from="22" function="normal" id="146" length="9.919521058206342" numLanes="1" priority="1" speed="36.11111111111111" spreadType="center" to="41">
		<lane allow="moped bicycle pedestrian custom1 trailer evehicle rail_urban ship private vip custom2 authority delivery rail_electric taxi tram army hov coach motorcycle passenger rail emergency" index="0" length="9.919521058206342" shape="12.73105,-114.54955 11.7888,-113.9739 10.9311,-113.2764 10.2156,-112.43505 9.71785,-111.45035 9.49785,-110.3689 9.54885,-109.26545 9.811399999999999,-108.19185 10.22405,-107.1655 10.728449999999999,-106.20785000000001" speed="36.11111111111111" width="2.4992877105287454"/>
	</edge>
	<edge from="22" function="normal" id="147" length="14.888403966632252" numLanes="1" priority="1" speed="36.11111111111111" spreadType="center" to="37">
		<lane allow="moped bicycle pedestrian custom1 trailer evehicle rail_urban ship private vip custom2 authority delivery rail_electric taxi tram army hov coach motorcycle passenger rail emergency" index="0" length="14.888403966632252" shape="12.73105,-114.54955 6.25165,-110.8848 -0.03714999999999996,-106.90105" speed="36.11111111111111" width="2.4992877105287454"/>
	</edge>
	<edge from="64" function="normal" id="148" length="13.95824469042035" numLanes="1" priority="1" speed="36.11111111111111" spreadType="center" to="47">
		<lane allow="moped bicycle pedestrian custom1 trailer evehicle rail_urban ship private vip custom2 authority delivery rail_electric taxi tram army hov coach motorcycle passenger rail emergency" index="0" length="13.95824469042035" shape="-81.43475000000001,-53.7519 -80.12604999999999,-54.590050000000005 -78.73235,-55.2727 -77.25210000000001,-55.73485 -75.71064999999999,-55.8921 -74.17845,-55.66645 -72.75345,-55.0592 -71.49080000000001,-54.16 -70.39670000000001,-53.0599 -69.4477,-51.83095" speed="36.11111111111111" width="2.4975881105578575"/>
	</edge>
	<edge from="32" function="normal" id="149" length="15.078025430613446" numLanes="1" priority="1" speed="36.11111111111111" spreadType="center" to="51">
		<lane allow="moped bicycle pedestrian custom1 trailer evehicle rail_urban ship private truck vip custom2 authority delivery rail_electric taxi tram army hov coach motorcycle passenger bus rail emergency" index="0" length="15.078025430613446" shape="-83.73695000000001,45.80975 -79.33494999999999,39.68585 -74.93639999999999,33.5665" speed="36.11111111111111" width="2.499025814192415"/>
	</edge>
	<edge from="36" function="normal" id="150" length="10.326914198683284" numLanes="1" priority="1" speed="36.11111111111111" spreadType="center" to="65">