<!-- generated on 2020-12-18 16:05:12.079952 by ipykernel_launcher.py v1_2_0+5214-53edc58fcd
-->
<nodes>
	<node id="1" type="from" x="-100.21494999999999" y="-158.99644999999998"/>
	<node id="2" type="to" x="-43.795649999999995" y="-88.04765"/>
	<node id="3" type="from" x="-45.75255" y="-86.49375"/>
	<node id="4" type="to" x="-102.1716" y="-157.4403"/>
	<node id="5" type="from" x="-10.00995" y="-20.94995"/>
	<node id="6" type="to" x="-36.79545" y="-1.16255"/>
	<node id="7" type="from" x="-38.31465" y="-3.1469"/>
	<node id="8" type="to" x="-11.4742" y="-22.9758"/>
	<node id="9" type="from" x="106.20349999999999" y="-88.89235"/>
	<node id="10" type="to" x="45.645799999999994" y="-58.390950000000004"/>
	<node id="11" type="from" x="44.455799999999996" y="-60.5884"/>
	<node id="12" type="to" x="105.31954999999999" y="-91.23079999999999"/>
	<node id="13" type="from" x="-70.34530000000001" y="-28.287599999999998"/>
	<node id="14" type="to" x="-65.81880000000001" y="-31.4699"/>
	<node id="15" type="from" x="-64.35305" y="-29.44555"/>
	<node id="16" type="to" x="-68.9075" y="-26.2424"/>
	<node id="17" type="from" x="0.6971" y="-20.2115"/>
	<node id="18" type="to" x="-9.378350000000001" y="92.18965"/>
	<node id="19" type="from" x="-11.63645" y="91.1174"/>
	<node id="20" type="to" x="-1.5441" y="-19.106299999999997"/>
	<node id="21" type="from" x="106.7058" y="-159.1154"/>
	<node id="22" type="to" x="12.73105" y="-114.54955"/>
	<node id="23" type="from" x="11.527899999999999" y="-116.74029999999999"/>
	<node id="24" type="to" x="105.93145" y="-161.4924"/>
	<node id="25" type="from" x="-45.64485" y="-76.20315"/>
	<node id="26" type="to" x="-68.14045" y="-60.1608"/>
	<node id="27" type="from" x="-69.6104" y="-62.18235"/>
	<node id="28" type="to" x="-47.10795" y="-78.22970000000001"/>
	<node id="29" type="from" x="-81.69325" y="47.2487"/>
	<node id="30" type="to" x="-95.4572" y="66.41205"/>
	<node id="31" type="from" x="-97.48765" y="64.9536"/>
	<node id="32" type="to" x="-83.73695000000001" y="45.80975"/>
	<node id="33" type="from" x="43.10935" y="-48.8681"/>
	<node id="34" type="to" x="50.90805" y="19.621450000000003"/>
	<node id="35" type="from" x="48.4081" y="19.6172"/>
	<node id="36" type="to" x="40.788399999999996" y="-47.9407"/>
	<node id="37" type="from" x="-0.03714999999999996" y="-106.90105"/>
	<node id="38" type="to" x="-33.732299999999995" y="-84.429"/>
	<node id="39" type="from" x="-35.09985" y="-86.5211"/>
	<node id="40" type="to" x="-1.3976000000000002" y="-108.99795"/>
	<node id="41" type="from" x="10.728449999999999" y="-106.20785000000001"/>
	<node id="42" type="to" x="36.344300000000004" y="-62.82755"/>
	<node id="43" type="from" x="34.1873" y="-61.56585"/>
	<node id="44" type="to" x="8.5777" y="-104.9354"/>
	<node id="45" type="from" x="-64.41975" y="-40.10825"/>
	<node id="46" type="to" x="-71.5051" y="-50.4127"/>
	<node id="47" type="from" x="-69.4477" y="-51.83095"/>
	<node id="48" type="to" x="-62.342650000000006" y="-41.498450000000005"/>
	<node id="49" type="from" x="-48.25005" y="8.107"/>
	<node id="50" type="to" x="-72.90594999999999" y="35.02445"/>
	<node id="51" type="from" x="-74.93639999999999" y="33.5665"/>
	<node id="52" type="to" x="-49.85035" y="6.18685"/>
	<node id="53" type="from" x="-107.77584999999999" y="2.76175"/>
	<node id="54" type="to" x="-82.9316" y="33.840050000000005"/>
	<node id="55" type="from" x="-84.88785" y="35.3946"/>
	<node id="56" type="to" x="-109.72855" y="4.32285"/>
	<node id="57" type="from" x="-37.754450000000006" y="8.431799999999999"/>
	<node id="58" type="to" x="-56.81075" y="91.8553"/>
	<node id="59" type="from" x="-58.94" y="90.54554999999999"/>
	<node id="60" type="to" x="-39.9823" y="9.564"/>
	<node id="61" type="from" x="-80.00055" y="-51.7047"/>
	<node id="62" type="to" x="-126.4958" y="-18.552500000000002"/>
	<node id="63" type="from" x="-127.94720000000001" y="-20.588099999999997"/>
	<node id="64" type="to" x="-81.43475000000001" y="-53.7519"/>
	<node id="65" type="from" x="32.66915" y="-50.418949999999995"/>
	<node id="66" type="to" x="1.8306" y="-29.3821"/>
	<node id="67" type="from" x="0.39325" y="-31.42615"/>
	<node id="68" type="to" x="31.26965" y="-52.4897"/>
</nodes>
