<routes>
	<vehicle depart="0.1" departLane="0" departPos="51.808600544505744" departSpeed="2.1065429" id="38" type="passenger">
		<route edges="89504 89732"/>
	</vehicle>
	<vehicle depart="0.1" departLane="0" departPos="44.33852867470276" departSpeed="2.4137103" id="311" type="passenger">
		<route edges="89504 89732"/>
	</vehicle>
	<vehicle depart="0.1" departLane="0" departPos="18.620346703413233" departSpeed="1.4330489" id="317" type="passenger">
		<route edges="89504 89732"/>
	</vehicle>
	<vehicle depart="0.1" departLane="0" departPos="8.11199857891815" departSpeed="0.7038766" id="323" type="passenger">
		<route edges="89504 89732"/>
	</vehicle>
	<vehicle depart="0.1" departLane="0" departPos="12.119866831109983" departSpeed="18.583246" id="327" type="passenger">
		<route edges=":30_5 89503"/>
	</vehicle>
	<vehicle depart="0.1" departLane="0" departPos="25.984894689331448" departSpeed="0.70097596" id="33" type="motorcycle">
		<route edges="89504 89732"/>
	</vehicle>
	<vehicle depart="0.1" departLane="0" departPos="61.230525086292324" departSpeed="3.4123923" id="30" type="truck">
		<route edges="89504 89732"/>
	</vehicle>
	<vehicle depart="0.1" departLane="0" departPos="36.40324775066275" departSpeed="0.2295406" id="312" type="truck">
		<route edges="89504 89732"/>
	</vehicle>
</routes>
