<routes>
	<vehicle depart="0.1" departLane="0" departPos="14.322776597178418" departSpeed="0.65346362" id="312" type="bicycle">
		<route edges=":48_1 94711"/>
	</vehicle>
	<vehicle depart="0.1" departLane="0" departPos="18.073893090411005" departSpeed="0.70928083" id="315" type="passenger">
		<route edges=":48_2 94703 94819"/>
	</vehicle>
	<vehicle depart="0.1" departLane="0" departPos="60.537671220917325" departSpeed="0.0" id="317" type="passenger">
		<route edges="94820 94704"/>
	</vehicle>
	<vehicle depart="0.1" departLane="0" departPos="7.869308224736507" departSpeed="4.3925944" id="318" type="passenger">
		<route edges=":44_2 94697 94663"/>
	</vehicle>
	<vehicle depart="0.1" departLane="0" departPos="11.221650060741032" departSpeed="13.514242" id="324" type="passenger">
		<route edges="94701 94819"/>
	</vehicle>
	<vehicle depart="0.1" departLane="0" departPos="58.682817584053026" departSpeed="0.093137038" id="326" type="passenger">
		<route edges="94706 94711"/>
	</vehicle>
	<vehicle depart="0.1" departLane="0" departPos="33.52855817576033" departSpeed="0.38163033" id="329" type="passenger">
		<route edges="94706 94711"/>
	</vehicle>
	<vehicle depart="0.1" departLane="0" departPos="48.19700766783006" departSpeed="0.30707804" id="334" type="passenger">
		<route edges="94706 94711"/>
	</vehicle>
	<vehicle depart="0.1" departLane="0" departPos="24.4449790774028" departSpeed="0.12083981" id="336" type="passenger">
		<route edges="94706 94711"/>
	</vehicle>
	<vehicle depart="0.1" departLane="0" departPos="70.26818473383499" departSpeed="0.0" id="30" type="truck">
		<route edges="94820 94704"/>
	</vehicle>
</routes>
