<!-- generated on Tue Feb  9 22:09:13 2021 by Eclipse SUMO netconvert Version 1.8.0
<configuration xmlns:xsi="http://www.w3.org/2001/XMLSchema-instance" xsi:noNamespaceSchemaLocation="http://sumo.dlr.de/xsd/netconvertConfiguration.xsd">

    <input>
        <node-files value="./converted_scenarios/scenario-factory/FRA_Anglet-4_2_I-1-1/FRA_Anglet-4_2_I-1-1.nod.xml"/>
        <edge-files value="./converted_scenarios/scenario-factory/FRA_Anglet-4_2_I-1-1/FRA_Anglet-4_2_I-1-1.edg.xml"/>
        <connection-files value="./converted_scenarios/scenario-factory/FRA_Anglet-4_2_I-1-1/FRA_Anglet-4_2_I-1-1.con.xml"/>
        <tllogic-files value="./converted_scenarios/scenario-factory/FRA_Anglet-4_2_I-1-1/FRA_Anglet-4_2_I-1-1.tll.xml"/>
        <type-files value="/home/zen/commonroad-interactive-benchmarks/install/commonroad-map-tool/crmapconverter/sumo_map/templates/DEU.typ.xml"/>
    </input>

    <output>
        <output-file value="./converted_scenarios/scenario-factory/FRA_Anglet-4_2_I-1-1/FRA_Anglet-4_2_I-1-1.net.xml"/>
    </output>

    <processing>
        <geometry.remove.keep-edges.explicit value="true"/>
        <geometry.avoid-overlap value="true"/>
        <offset.disable-normalization value="true"/>
    </processing>

    <junctions>
        <no-turnarounds value="true"/>
        <junctions.internal-link-detail value="20"/>
    </junctions>

    <report>
        <aggregate-warnings value="5"/>
    </report>

    <random_number>
        <seed value="1234"/>
    </random_number>

</configuration>
--><net xmlns:xsi="http://www.w3.org/2001/XMLSchema-instance" version="1.6" junctionCornerDetail="5" junctionLinkDetail="20" limitTurnSpeed="5.50" xsi:noNamespaceSchemaLocation="http://sumo.dlr.de/xsd/net_file.xsd">

    <location netOffset="0.00,0.00" convBoundary="536.50,-726.69,761.51,-401.09" origBoundary="536.50,-726.69,761.51,-401.09" projParameter="!"/>

    <type id="highway.bridleway" priority="1" speed="2.78" allow="pedestrian" oneway="1" width="2.00"/>
    <type id="highway.bus_guideway" priority="1" speed="27.78" allow="bus" oneway="1"/>
    <type id="highway.cycleway" priority="1" speed="8.33" allow="bicycle" oneway="0" width="1.00"/>
    <type id="highway.footway" priority="1" speed="2.78" allow="pedestrian" oneway="1" width="2.00"/>
    <type id="highway.ford" priority="1" speed="2.78" allow="army" oneway="0"/>
    <type id="highway.living_street" priority="2" speed="2.78" disallow="tram rail_urban rail rail_electric rail_fast ship" oneway="0"/>
    <type id="highway.motorway" priority="14" speed="39.44" allow="private emergency authority army vip passenger hov taxi bus coach delivery truck trailer motorcycle evehicle custom1 custom2" oneway="1"/>
    <type id="highway.motorway_link" priority="9" speed="22.22" allow="private emergency authority army vip passenger hov taxi bus coach delivery truck trailer motorcycle evehicle custom1 custom2" oneway="1"/>
    <type id="highway.path" priority="1" speed="2.78" allow="pedestrian bicycle" oneway="0" width="2.00"/>
    <type id="highway.pedestrian" priority="1" speed="2.78" allow="pedestrian" oneway="1" width="2.00"/>
    <type id="highway.primary" priority="12" speed="27.78" disallow="pedestrian tram rail_urban rail rail_electric rail_fast ship" oneway="0"/>
    <type id="highway.primary_link" priority="7" speed="22.22" disallow="pedestrian tram rail_urban rail rail_electric rail_fast ship" oneway="0"/>
    <type id="highway.raceway" priority="15" speed="83.33" allow="vip" oneway="0"/>
    <type id="highway.residential" priority="3" speed="13.89" disallow="pedestrian tram rail_urban rail rail_electric rail_fast ship" oneway="0"/>
    <type id="highway.secondary" priority="11" speed="27.78" disallow="pedestrian tram rail_urban rail rail_electric rail_fast ship" oneway="0"/>
    <type id="highway.secondary_link" priority="6" speed="22.22" disallow="pedestrian tram rail_urban rail rail_electric rail_fast ship" oneway="0"/>
    <type id="highway.service" priority="1" speed="5.56" allow="pedestrian delivery bicycle" oneway="0"/>
    <type id="highway.stairs" priority="1" speed="1.39" allow="pedestrian" oneway="1" width="2.00"/>
    <type id="highway.step" priority="1" speed="1.39" allow="pedestrian" oneway="1" width="2.00"/>
    <type id="highway.steps" priority="1" speed="1.39" allow="pedestrian" oneway="1" width="2.00"/>
    <type id="highway.tertiary" priority="10" speed="22.22" disallow="pedestrian tram rail_urban rail rail_electric rail_fast ship" oneway="0"/>
    <type id="highway.tertiary_link" priority="5" speed="22.22" disallow="pedestrian tram rail_urban rail rail_electric rail_fast ship" oneway="0"/>
    <type id="highway.track" priority="1" speed="5.56" allow="pedestrian motorcycle moped bicycle" oneway="0"/>
    <type id="highway.trunk" priority="13" speed="27.78" disallow="pedestrian bicycle tram rail_urban rail rail_electric rail_fast ship" oneway="0"/>
    <type id="highway.trunk_link" priority="8" speed="22.22" disallow="pedestrian bicycle tram rail_urban rail rail_electric rail_fast ship" oneway="0"/>
    <type id="highway.unclassified" priority="4" speed="13.89" disallow="pedestrian tram rail_urban rail rail_electric rail_fast ship" oneway="0"/>
    <type id="highway.unsurfaced" priority="1" speed="8.33" disallow="tram rail_urban rail rail_electric rail_fast ship" oneway="0"/>
    <type id="railway.highspeed" priority="21" speed="69.44" allow="rail_fast" oneway="1"/>
    <type id="railway.light_rail" priority="19" speed="27.78" allow="rail_urban" oneway="1"/>
    <type id="railway.preserved" priority="16" speed="27.78" allow="rail" oneway="1"/>
    <type id="railway.rail" priority="20" speed="44.44" allow="rail" oneway="1"/>
    <type id="railway.subway" priority="18" speed="27.78" allow="rail_urban" oneway="1"/>
    <type id="railway.tram" priority="17" speed="13.89" allow="tram" oneway="1"/>

    <edge id=":42_0" function="internal">
        <lane id=":42_0_0" index="0" disallow="pedestrian tram rail_urban rail rail_electric rail_fast ship" speed="36.11" length="4.77" width="3.50" shape="621.56,-628.75 620.51,-633.40"/>
    </edge>
    <edge id=":42_1" function="internal">
        <lane id=":42_1_0" index="0" disallow="pedestrian tram rail_urban rail rail_electric rail_fast ship" speed="36.11" length="4.94" width="3.50" shape="623.96,-634.27 625.00,-629.44"/>
    </edge>
    <edge id=":44_0" function="internal">
        <lane id=":44_0_0" index="0" disallow="pedestrian tram rail_urban rail rail_electric rail_fast ship" speed="36.11" length="42.13" width="3.50" shape="694.00,-522.06 693.06,-521.71 688.36,-519.73 682.86,-517.02 675.67,-513.04 667.74,-508.25 657.33,-501.48"/>
    </edge>
    <edge id=":44_1" function="internal">
        <lane id=":44_1_0" index="0" disallow="pedestrian tram rail_urban rail rail_electric rail_fast ship" speed="16.42" length="37.67" width="3.50" shape="694.00,-522.06 689.64,-520.63 685.22,-519.51 681.85,-518.92 678.44,-518.57 675.02,-518.52 671.61,-518.80 668.26,-519.47 665.01,-520.55 662.94,-521.50 660.96,-522.64 658.19,-524.65"/>
    </edge>
    <edge id=":44_2" function="internal">
        <lane id=":44_2_0" index="0" disallow="pedestrian tram rail_urban rail rail_electric rail_fast ship" speed="15.55" length="34.07" width="3.50" shape="660.38,-527.38 662.89,-525.56 664.62,-524.57 666.44,-523.75 669.34,-522.81 672.34,-522.24 675.40,-522.01 678.50,-522.08 681.60,-522.42 684.68,-522.98 688.77,-524.02 692.80,-525.35"/>
    </edge>
    <edge id=":44_3" function="internal">
        <lane id=":44_3_0" index="0" disallow="pedestrian tram rail_urban rail rail_electric rail_fast ship" speed="36.11" length="42.95" width="3.50" shape="655.40,-504.40 665.94,-511.25 674.01,-516.12 681.34,-520.17 686.98,-522.94 691.81,-524.98 692.80,-525.35"/>
    </edge>
    <edge id=":45_0" function="internal">
        <lane id=":45_0_0" index="0" disallow="pedestrian tram rail_urban rail rail_electric rail_fast ship" speed="24.78" length="35.19" width="3.50" shape="658.00,-524.81 655.54,-527.01 652.51,-530.19 649.76,-533.63 647.30,-537.27 645.12,-541.09 643.20,-545.04 641.13,-550.14 639.72,-554.31"/>
    </edge>
    <edge id=":45_1" function="internal">
        <lane id=":45_1_0" index="0" disallow="pedestrian tram rail_urban rail rail_electric rail_fast ship" speed="24.47" length="33.21" width="3.50" shape="643.06,-555.36 644.41,-551.38 646.37,-546.54 648.18,-542.80 650.23,-539.19 652.54,-535.76 655.10,-532.54 657.95,-529.55 660.26,-527.48"/>
    </edge>
    <edge id=":45_2" function="internal">
        <lane id=":45_2_0" index="0" disallow="pedestrian tram rail_urban rail rail_electric rail_fast ship" speed="17.55" length="25.55" width="3.50" shape="643.38,-529.16 643.41,-529.47 643.44,-534.11 643.10,-538.73 642.34,-543.82 641.13,-549.35 639.72,-554.31"/>
    </edge>
    <edge id=":46_0" function="internal">
        <lane id=":46_0_0" index="0" disallow="pedestrian tram rail_urban rail rail_electric rail_fast ship" speed="11.07" length="28.73" width="3.50" shape="734.44,-518.84 733.68,-521.11 732.78,-523.16 731.68,-525.07 730.33,-526.80 729.60,-527.52 728.79,-528.20 727.93,-528.79 727.02,-529.30 726.07,-529.72 725.07,-530.04 724.03,-530.29 722.97,-530.44 721.91,-530.52 719.68,-530.46 717.45,-530.15 715.24,-529.65 711.92,-528.58"/>
    </edge>
    <edge id=":46_1" function="internal">
        <lane id=":46_1_0" index="0" disallow="pedestrian tram rail_urban rail rail_electric rail_fast ship" speed="36.11" length="38.13" width="3.50" shape="744.19,-548.55 738.41,-543.91 732.45,-539.57 727.13,-536.11 721.62,-532.96 716.85,-530.61 711.92,-528.58"/>
    </edge>
    <edge id=":46_2" function="internal">
        <lane id=":46_2_0" index="0" disallow="pedestrian tram rail_urban rail rail_electric rail_fast ship" speed="36.11" length="36.87" width="3.50" shape="710.71,-531.87 715.44,-533.82 720.04,-536.08 725.37,-539.13 730.52,-542.49 736.31,-546.71 741.90,-551.20"/>
    </edge>
    <edge id=":46_3" function="internal">
        <lane id=":46_3_0" index="0" disallow="pedestrian tram rail_urban rail rail_electric rail_fast ship" speed="12.09" length="34.45" width="3.50" shape="710.71,-531.87 714.50,-533.08 717.08,-533.66 719.71,-534.02 722.36,-534.07 723.68,-533.97 724.99,-533.77 726.28,-533.46 727.53,-533.03 728.74,-532.49 729.89,-531.84 730.98,-531.08 731.99,-530.22 732.92,-529.27 734.53,-527.18 735.86,-524.88 736.92,-522.45 737.77,-519.94"/>
    </edge>
    <edge id=":47_0" function="internal">
        <lane id=":47_0_0" index="0" disallow="pedestrian tram rail_urban rail rail_electric rail_fast ship" speed="8.66" length="19.40" width="3.50" shape="634.12,-469.66 633.95,-470.87 633.25,-474.45 632.62,-476.73 631.80,-478.92 631.31,-479.91 630.76,-480.84 630.13,-481.68 629.44,-482.39 628.70,-482.94 627.91,-483.31 627.07,-483.51 626.16,-483.55 625.20,-483.41 624.18,-483.13"/>
    </edge>
    <edge id=":47_1" function="internal">
        <lane id=":47_1_0" index="0" disallow="pedestrian tram rail_urban rail rail_electric rail_fast ship" speed="14.10" length="31.35" width="3.50" shape="634.12,-469.66 633.97,-470.87 633.70,-474.36 633.73,-477.91 634.12,-481.45 634.63,-483.83 635.35,-486.15 636.32,-488.39 637.54,-490.52 638.99,-492.50 640.66,-494.30 642.51,-495.90 644.48,-497.28"/>
    </edge>
    <edge id=":47_2" function="internal">
        <lane id=":47_2_0" index="0" disallow="pedestrian tram rail_urban rail rail_electric rail_fast ship" speed="13.18" length="27.32" width="3.50" shape="646.35,-494.33 644.64,-493.13 643.06,-491.75 641.64,-490.20 640.41,-488.49 639.39,-486.65 638.58,-484.71 637.96,-482.70 637.54,-480.64 637.22,-477.50 637.21,-474.35 637.46,-471.20 637.59,-470.16"/>
    </edge>
    <edge id=":47_3" function="internal">
        <lane id=":47_3_0" index="0" disallow="pedestrian tram rail_urban rail rail_electric rail_fast ship" speed="36.11" length="24.89" width="3.50" shape="646.35,-494.33 639.90,-490.47 634.18,-487.42 629.27,-485.12 624.18,-483.13"/>
    </edge>
    <edge id=":47_4" function="internal">
        <lane id=":47_4_0" index="0" disallow="pedestrian tram rail_urban rail rail_electric rail_fast ship" speed="36.11" length="24.14" width="3.50" shape="622.98,-486.41 627.92,-488.35 632.66,-490.57 638.21,-493.53 644.48,-497.28"/>
    </edge>
    <edge id=":47_5" function="internal">
        <lane id=":47_5_0" index="0" disallow="pedestrian tram rail_urban rail rail_electric rail_fast ship" speed="9.95" length="25.76" width="3.50" shape="622.98,-486.41 624.41,-486.83 625.82,-487.07 627.25,-487.10 628.65,-486.88 629.99,-486.39 631.21,-485.65 632.28,-484.71 633.20,-483.61 633.99,-482.42 634.66,-481.16 635.73,-478.52 636.53,-475.77 637.38,-471.57 637.59,-470.16"/>
    </edge>
    <edge id=":48_0" function="internal">
        <lane id=":48_0_0" index="0" disallow="pedestrian tram rail_urban rail rail_electric rail_fast ship" speed="36.11" length="22.33" width="3.50" shape="626.20,-483.87 615.52,-480.33 604.88,-477.24"/>
    </edge>
    <edge id=":48_1" function="internal">
        <lane id=":48_1_0" index="0" disallow="pedestrian tram rail_urban rail rail_electric rail_fast ship" speed="19.85" length="23.75" width="3.50" shape="603.91,-480.60 608.86,-482.16 613.20,-483.87 616.92,-485.68 620.03,-487.54 622.94,-489.70 624.78,-491.41"/>
    </edge>
    <edge id=":48_2" function="internal">
        <lane id=":48_2_0" index="0" disallow="pedestrian tram rail_urban rail rail_electric rail_fast ship" speed="36.11" length="22.10" width="3.50" shape="603.91,-480.60 614.47,-483.67 625.02,-487.13"/>
    </edge>

    <edge id="94662" from="39" to="46" priority="3" type="highway.residential" spreadType="center" length="26.07" shape="741.28,-493.82 728.46,-532.70">
        <lane id="94662_0" index="0" disallow="pedestrian tram rail_urban rail rail_electric rail_fast ship" speed="36.11" length="26.07" width="3.50" customShape="1" shape="741.28,-493.82 741.11,-494.79 740.10,-498.76 738.76,-505.29 737.74,-509.26 735.84,-514.57 734.42,-518.93"/>
    </edge>
    <edge id="94663" from="46" to="33" priority="3" type="highway.residential" spreadType="center" length="26.65" shape="731.79,-533.79 744.75,-494.26">
        <lane id="94663_0" index="0" disallow="pedestrian tram rail_urban rail rail_electric rail_fast ship" speed="36.11" length="26.65" width="3.50" customShape="1" shape="737.77,-519.94 739.20,-515.59 741.12,-510.17 742.17,-506.04 743.54,-499.45 744.56,-495.41 744.75,-494.26"/>
    </edge>
    <edge id="94694" from="46" to="32" priority="3" type="highway.residential" spreadType="center" length="25.86" shape="728.75,-534.23 758.59,-570.81">
        <lane id="94694_0" index="0" disallow="pedestrian tram rail_urban rail rail_electric rail_fast ship" speed="36.11" length="25.86" width="3.50" customShape="1" shape="741.90,-551.20 744.15,-553.15 747.73,-556.61 751.02,-560.33 754.36,-564.65 758.59,-570.81"/>
    </edge>
    <edge id="94695" from="40" to="46" priority="3" type="highway.residential" spreadType="center" length="26.84" shape="761.51,-568.88 731.46,-532.02">
        <lane id="94695_0" index="0" disallow="pedestrian tram rail_urban rail rail_electric rail_fast ship" speed="36.11" length="26.84" width="3.50" customShape="1" shape="761.51,-568.88 757.15,-562.54 753.67,-558.04 750.23,-554.16 746.50,-550.56 744.17,-548.54"/>
    </edge>
    <edge id="94697" from="44" to="46" priority="3" type="highway.residential" spreadType="center" length="19.07" shape="669.24,-519.25 729.76,-534.88">
        <lane id="94697_0" index="0" disallow="pedestrian tram rail_urban rail rail_electric rail_fast ship" speed="36.11" length="19.07" width="3.50" customShape="1" shape="692.80,-525.35 701.75,-528.60 710.72,-531.87"/>
    </edge>
    <edge id="94698" from="46" to="44" priority="3" type="highway.residential" spreadType="center" length="19.09" shape="730.63,-531.49 670.12,-515.86">
        <lane id="94698_0" index="0" disallow="pedestrian tram rail_urban rail rail_electric rail_fast ship" speed="36.11" length="19.09" width="3.50" customShape="1" shape="711.92,-528.58 702.95,-525.32 693.98,-522.05"/>
    </edge>
    <edge id="94700" from="47" to="44" priority="3" type="highway.residential" spreadType="center" length="13.06" shape="633.69,-484.71 668.46,-518.80">
        <lane id="94700_0" index="0" disallow="pedestrian tram rail_urban rail rail_electric rail_fast ship" speed="36.11" length="13.06" width="3.50" customShape="1" shape="644.48,-497.28 644.95,-497.58 655.42,-504.41"/>
    </edge>
    <edge id="94701" from="44" to="47" priority="3" type="highway.residential" spreadType="center" length="13.11" shape="670.91,-516.30 636.14,-482.21">
        <lane id="94701_0" index="0" disallow="pedestrian tram rail_urban rail rail_electric rail_fast ship" speed="36.11" length="13.11" width="3.50" customShape="1" shape="657.33,-501.48 646.82,-494.62 646.35,-494.32"/>
    </edge>
    <edge id="94703" from="48" to="47" priority="3" type="highway.residential" spreadType="center" length="0.20" shape="616.18,-485.71 635.00,-485.25">
        <lane id="94703_0" index="0" disallow="pedestrian tram rail_urban rail rail_electric rail_fast ship" speed="36.11" length="0.20" width="3.50" customShape="1" shape="625.02,-487.13 625.21,-487.19"/>
    </edge>
    <edge id="94704" from="47" to="48" priority="3" type="highway.residential" spreadType="center" length="0.19" shape="634.92,-481.75 616.09,-482.23">
        <lane id="94704_0" index="0" disallow="pedestrian tram rail_urban rail rail_electric rail_fast ship" speed="36.11" length="0.19" width="3.50" customShape="1" shape="626.38,-483.94 626.20,-483.87"/>
    </edge>
    <edge id="94706" from="41" to="48" priority="3" type="highway.residential" spreadType="center" length="70.01" shape="536.50,-461.75 615.83,-485.65">
        <lane id="94706_0" index="0" disallow="pedestrian tram rail_urban rail rail_electric rail_fast ship" speed="36.11" length="70.01" width="3.50" customShape="1" shape="536.50,-461.75 536.90,-461.85 548.60,-464.95 603.92,-480.61"/>
    </edge>
    <edge id="94707" from="48" to="31" priority="3" type="highway.residential" spreadType="center" length="70.00" shape="616.84,-482.30 537.47,-458.38">
        <lane id="94707_0" index="0" disallow="pedestrian tram rail_urban rail rail_electric rail_fast ship" speed="36.11" length="70.00" width="3.50" customShape="1" shape="604.88,-477.24 549.64,-461.60 537.92,-458.49 537.47,-458.38"/>
    </edge>
    <edge id="94711" from="48" to="45" priority="3" type="highway.residential" spreadType="center" length="42.56">
        <lane id="94711_0" index="0" disallow="pedestrian tram rail_urban rail rail_electric rail_fast ship" speed="36.11" length="42.56" width="3.50" customShape="1" shape="624.87,-491.34 630.20,-497.70 633.25,-501.84 635.98,-506.19 638.40,-510.73 646.19,-527.88"/>
    </edge>
    <edge id="94757" from="37" to="42" priority="3" type="highway.residential" spreadType="center" length="94.93">
        <lane id="94757_0" index="0" disallow="pedestrian tram rail_urban rail rail_electric rail_fast ship" speed="36.11" length="94.93" width="3.50" customShape="1" shape="608.72,-726.69 607.63,-720.24 606.91,-713.73 606.49,-707.19 606.47,-701.65 606.83,-696.12 607.42,-692.13 608.67,-686.73 612.38,-672.60 623.39,-634.13"/>
    </edge>
    <edge id="94801" from="42" to="45" priority="3" type="highway.residential" spreadType="center" length="76.37" shape="621.63,-643.48 649.93,-535.70">
        <lane id="94801_0" index="0" disallow="pedestrian tram rail_urban rail rail_electric rail_fast ship" speed="36.11" length="76.37" width="3.50" customShape="1" shape="625.00,-629.44 625.42,-627.33 628.76,-608.57 630.70,-598.73 633.07,-588.98 636.44,-576.91 643.07,-555.34"/>
    </edge>
    <edge id="94802" from="45" to="42" priority="3" type="highway.residential" spreadType="center" length="76.72" shape="646.55,-534.82 618.25,-642.59">
        <lane id="94802_0" index="0" disallow="pedestrian tram rail_urban rail rail_electric rail_fast ship" speed="36.11" length="76.72" width="3.50" customShape="1" shape="639.72,-554.31 633.07,-575.95 629.69,-588.10 627.29,-597.93 625.33,-607.84 621.99,-626.64 621.56,-628.75"/>
    </edge>
    <edge id="94819" from="47" to="24" priority="3" type="highway.residential" spreadType="center" length="70.00" shape="636.68,-483.85 651.51,-401.57">
        <lane id="94819_0" index="0" disallow="pedestrian tram rail_urban rail rail_electric rail_fast ship" speed="36.11" length="70.00" width="3.50" customShape="1" shape="637.59,-470.16 638.59,-463.21 651.51,-401.57"/>
    </edge>
    <edge id="94820" from="38" to="47" priority="3" type="highway.residential" spreadType="center" length="70.00" shape="648.03,-401.09 633.23,-483.23">
        <lane id="94820_0" index="0" disallow="pedestrian tram rail_urban rail rail_electric rail_fast ship" speed="36.11" length="70.00" width="3.50" customShape="1" shape="648.03,-401.09 635.14,-462.64 634.12,-469.68"/>
    </edge>
    <edge id="94845" from="44" to="45" priority="3" type="highway.residential" spreadType="center" length="0.25" shape="668.57,-516.20 647.03,-534.01">
        <lane id="94845_0" index="0" disallow="pedestrian tram rail_urban rail rail_electric rail_fast ship" speed="36.11" length="0.25" width="3.50" customShape="1" shape="658.19,-524.65 658.10,-524.73 658.00,-524.81"/>
    </edge>
    <edge id="94846" from="45" to="44" priority="3" type="highway.residential" spreadType="center" length="0.22" shape="649.26,-536.70 670.80,-518.90">
        <lane id="94846_0" index="0" disallow="pedestrian tram rail_urban rail rail_electric rail_fast ship" speed="36.11" length="0.22" width="3.50" customShape="1" shape="660.26,-527.48 660.43,-527.34"/>
    </edge>
    <edge id="95007" from="42" to="43" priority="3" type="highway.residential" spreadType="center" length="26.48">
        <lane id="95007_0" index="0" disallow="pedestrian tram rail_urban rail rail_electric rail_fast ship" speed="36.11" length="26.48" width="3.50" customShape="1" shape="620.51,-633.40 620.40,-633.80 619.41,-636.45 618.36,-638.47 617.08,-640.34 615.56,-642.01 613.80,-643.45 611.87,-644.63 609.79,-645.53 607.06,-646.31 604.26,-646.75 600.86,-646.90 600.30,-646.89"/>
    </edge>

    <junction id="24" type="dead_end" x="651.51" y="-401.57" incLanes="94819_0" intLanes="" shape="653.22,-401.93 649.80,-401.21" rightOfWay="edgePriority"/>
    <junction id="31" type="dead_end" x="537.47" y="-458.38" incLanes="94707_0" intLanes="" shape="537.86,-456.68 537.07,-460.09" rightOfWay="edgePriority"/>
    <junction id="32" type="dead_end" x="758.59" y="-570.81" incLanes="94694_0" intLanes="" shape="757.15,-571.80 760.04,-569.82" rightOfWay="edgePriority"/>
    <junction id="33" type="dead_end" x="744.75" y="-494.26" incLanes="94663_0" intLanes="" shape="746.47,-494.55 743.02,-493.97" rightOfWay="edgePriority"/>
    <junction id="37" type="dead_end" x="608.72" y="-726.69" incLanes="" intLanes="" shape="607.00,-726.99 610.45,-726.40" rightOfWay="edgePriority"/>
    <junction id="38" type="dead_end" x="648.03" y="-401.09" incLanes="" intLanes="" shape="649.75,-401.45 646.32,-400.73" rightOfWay="edgePriority"/>
    <junction id="39" type="dead_end" x="741.28" y="-493.82" incLanes="" intLanes="" shape="743.00,-494.11 739.55,-493.52" rightOfWay="edgePriority"/>
    <junction id="40" type="dead_end" x="761.51" y="-568.88" incLanes="" intLanes="" shape="760.07,-569.87 762.95,-567.89" rightOfWay="edgePriority"/>
    <junction id="41" type="dead_end" x="536.50" y="-461.75" incLanes="" intLanes="" shape="536.90,-460.05 536.11,-463.46" rightOfWay="edgePriority"/>
    <junction id="42" type="priority" x="619.94" y="-643.04" incLanes="94802_0 94757_0" intLanes=":42_0_0 :42_1_0" shape="619.85,-628.40 626.71,-629.78 626.22,-631.58 625.97,-632.19 625.71,-632.79 625.41,-633.53 625.09,-634.56 618.81,-632.96">
        <request index="0" response="00" foes="00" cont="0"/>
        <request index="1" response="00" foes="00" cont="0"/>
    </junction>
    <junction id="43" type="dead_end" x="600.30" y="-646.89" incLanes="95007_0" intLanes="" shape="600.32,-645.14 600.27,-648.64"/>
    <junction id="44" type="priority" x="669.68" y="-517.55" incLanes="94698_0 94846_0 94700_0" intLanes=":44_0_0 :44_1_0 :44_2_0 :44_3_0" shape="694.60,-520.41 692.21,-526.99 685.79,-525.01 679.89,-523.93 674.52,-523.76 669.67,-524.50 665.35,-526.14 661.55,-528.68 657.07,-523.31 659.94,-520.38 661.48,-517.45 661.71,-514.54 660.61,-511.64 658.20,-508.75 654.46,-505.88 658.29,-500.02 665.67,-504.98 671.10,-508.78 675.65,-511.81 680.37,-514.49 686.33,-517.22">
        <request index="0" response="0000" foes="0000" cont="0"/>
        <request index="1" response="1000" foes="1000" cont="0"/>
        <request index="2" response="1000" foes="1000" cont="0"/>
        <request index="3" response="0000" foes="0110" cont="0"/>
    </junction>
    <junction id="45" type="priority" x="648.23" y="-535.29" incLanes="94845_0 94801_0 94711_0" intLanes=":45_0_0 :45_1_0 :45_2_0" shape="656.87,-523.48 661.39,-528.82 656.28,-533.33 652.73,-537.02 650.28,-540.49 648.44,-544.38 646.76,-549.29 644.74,-555.85 638.05,-553.80 640.24,-548.43 642.65,-544.37 644.78,-540.98 646.15,-537.63 646.25,-533.72 644.60,-528.60 647.79,-527.15 649.36,-527.99 650.70,-527.64 652.39,-526.77 654.45,-525.38">
        <request index="0" response="000" foes="100" cont="0"/>
        <request index="1" response="000" foes="000" cont="0"/>
        <request index="2" response="001" foes="001" cont="0"/>
    </junction>
    <junction id="46" type="priority" x="730.15" y="-533.18" incLanes="94662_0 94695_0 94697_0" intLanes=":46_0_0 :46_1_0 :46_2_0 :46_3_0" shape="732.78,-518.30 739.43,-520.48 738.06,-525.90 737.63,-530.94 738.14,-535.59 739.59,-539.86 741.99,-543.74 745.34,-547.23 740.76,-552.52 734.93,-547.45 730.52,-543.72 726.68,-540.91 722.56,-538.56 717.33,-536.24 710.12,-533.51 712.52,-526.94 717.41,-528.28 721.69,-528.50 725.37,-527.62 728.45,-525.62 730.92,-522.52">
        <request index="0" response="0010" foes="0010" cont="0"/>
        <request index="1" response="0000" foes="1001" cont="0"/>
        <request index="2" response="0000" foes="0000" cont="0"/>
        <request index="3" response="0010" foes="0010" cont="0"/>
    </junction>
    <junction id="47" type="priority" x="634.96" y="-483.50" incLanes="94820_0 94701_0 94703_0" intLanes=":47_0_0 :47_1_0 :47_2_0 :47_3_0 :47_4_0 :47_5_0" shape="632.39,-469.41 639.32,-470.41 638.90,-475.47 639.19,-480.01 640.16,-484.01 641.84,-487.48 644.21,-490.43 647.28,-492.84 643.54,-498.76 639.27,-496.05 636.08,-494.05 633.39,-492.52 630.60,-491.18 627.13,-489.78 622.38,-488.05 624.79,-481.48 628.11,-481.05 629.48,-479.49 630.65,-477.03 631.62,-473.67">
        <request index="0" response="001000" foes="001000" cont="0"/>
        <request index="1" response="111000" foes="111000" cont="0"/>
        <request index="2" response="000000" foes="100000" cont="0"/>
        <request index="3" response="000000" foes="100011" cont="0"/>
        <request index="4" response="000000" foes="000010" cont="0"/>
        <request index="5" response="001100" foes="001110" cont="0"/>
    </junction>
    <junction id="48" type="priority" x="616.30" y="-483.96" incLanes="94704_0 94706_0" intLanes=":48_0_0 :48_1_0 :48_2_0" shape="628.98,-483.02 626.66,-489.56 626.21,-490.22 623.53,-492.46 620.28,-488.93 617.51,-486.67 614.84,-485.29 611.86,-484.37 608.19,-483.51 603.45,-482.29 605.35,-475.55">
        <request index="0" response="000" foes="000" cont="0"/>
        <request index="1" response="000" foes="000" cont="0"/>
        <request index="2" response="000" foes="000" cont="0"/>
    </junction>

    <connection from="94662" to="94698" fromLane="0" toLane="0" contPos="-4.00" shape="734.42,-518.93 733.68,-521.11 732.78,-523.16 731.68,-525.07 730.33,-526.80 729.60,-527.52 728.79,-528.20 727.93,-528.79 727.02,-529.30 726.07,-529.72 725.07,-530.04 724.03,-530.29 722.97,-530.44 721.91,-530.52 719.68,-530.46 717.45,-530.15 715.24,-529.65 711.92,-528.58" via=":46_0_0" dir="r" state="m"/>
    <connection from="94695" to="94698" fromLane="0" toLane="0" contPos="-4.00" shape="744.17,-548.54 738.41,-543.91 732.45,-539.57 727.13,-536.11 721.62,-532.96 716.85,-530.61 711.92,-528.58" via=":46_1_0" dir="s" state="M"/>
    <connection from="94697" to="94694" fromLane="0" toLane="0" contPos="-4.00" shape="710.71,-531.87 715.44,-533.82 720.04,-536.08 725.37,-539.13 730.52,-542.49 736.31,-546.71 741.90,-551.20" via=":46_2_0" dir="s" state="M"/>
    <connection from="94697" to="94663" fromLane="0" toLane="0" contPos="-4.00" shape="710.71,-531.87 714.50,-533.08 717.08,-533.66 719.71,-534.02 722.36,-534.07 723.68,-533.97 724.99,-533.77 726.28,-533.46 727.53,-533.03 728.74,-532.49 729.89,-531.84 730.98,-531.08 731.99,-530.22 732.92,-529.27 734.53,-527.18 735.86,-524.88 736.92,-522.45 737.77,-519.94" via=":46_3_0" dir="l" state="m"/>
    <connection from="94698" to="94701" fromLane="0" toLane="0" contPos="-4.00" shape="693.98,-522.05 693.06,-521.71 688.36,-519.73 682.86,-517.02 675.67,-513.04 667.74,-508.25 657.33,-501.48" via=":44_0_0" dir="s" state="M"/>
    <connection from="94698" to="94845" fromLane="0" toLane="0" contPos="-4.00" shape="693.98,-522.05 689.64,-520.63 685.22,-519.51 681.85,-518.92 678.44,-518.57 675.02,-518.52 671.61,-518.80 668.26,-519.47 665.01,-520.55 662.94,-521.50 660.96,-522.64 658.19,-524.65" via=":44_1_0" dir="l" state="m"/>
    <connection from="94700" to="94697" fromLane="0" toLane="0" contPos="-4.00" shape="655.40,-504.40 665.94,-511.25 674.01,-516.12 681.34,-520.17 686.98,-522.94 691.81,-524.98 692.80,-525.35" via=":44_3_0" dir="s" state="M"/>
    <connection from="94701" to="94819" fromLane="0" toLane="0" contPos="-4.00" shape="646.35,-494.33 644.64,-493.13 643.06,-491.75 641.64,-490.20 640.41,-488.49 639.39,-486.65 638.58,-484.71 637.96,-482.70 637.54,-480.64 637.22,-477.50 637.21,-474.35 637.46,-471.20 637.59,-470.16" via=":47_2_0" dir="r" state="M"/>