<routes>
	<vehicle depart="0.1" departLane="0" departPos="25.138007755241514" departSpeed="13.721989" id="317" type="passenger">
		<route edges=":101_10 133230"/>
	</vehicle>
	<vehicle depart="0.1" departLane="0" departPos="25.05198109833073" departSpeed="1.2645182" id="318" type="passenger">
		<route edges=":101_1 133236 133408"/>
	</vehicle>
	<vehicle depart="0.1" departLane="0" departPos="34.05949040849266" departSpeed="0.0" id="321" type="passenger">
		<route edges=":101_8 133164"/>
	</vehicle>
	<vehicle depart="0.1" departLane="0" departPos="49.38720532073367" departSpeed="1.8672226" id="332" type="passenger">
		<route edges="133229 132924"/>
	</vehicle>
	<vehicle depart="0.1" departLane="0" departPos="26.688727484975782" departSpeed="6.7264569" id="353" type="passenger">
		<route edges=":98_8 133163 133236"/>
	</vehicle>
	<vehicle depart="0.1" departLane="0" departPos="28.348619490177978" departSpeed="0.01118165" id="366" type="passenger">
		<route edges=":101_0 133164"/>
	</vehicle>
	<vehicle depart="0.1" departLane="0" departPos="21.45843096444767" departSpeed="0.05285862" id="373" type="passenger">
		<route edges=":101_0 133164"/>
	</vehicle>
	<vehicle depart="0.1" departLane="0" departPos="14.264499352524668" departSpeed="0.19800008" id="382" type="passenger">
		<route edges=":101_0 133164"/>
	</vehicle>
	<vehicle depart="0.1" departLane="0" departPos="34.11108009743225" departSpeed="0.25467223" id="389" type="passenger">
		<route edges="132923 133230"/>
	</vehicle>
	<vehicle depart="0.1" departLane="0" departPos="19.18918969209916" departSpeed="1.0642861" id="398" type="passenger">
		<route edges="132923 133230"/>
	</vehicle>
</routes>
