<routes>
	<vehicle depart="0.1" departLane="0" departPos="25.50230256283019" departSpeed="2.8260909" id="314" type="bicycle">
		<route edges=":41_5 40632"/>
	</vehicle>
	<vehicle depart="0.1" departLane="0" departPos="17.374143278252532" departSpeed="0.8307364" id="38" type="passenger">
		<route edges="40632 40569"/>
	</vehicle>
	<vehicle depart="0.1" departLane="0" departPos="6.797156534459813" departSpeed="0.089004341" id="312" type="passenger">
		<route edges=":41_5 40632"/>
	</vehicle>
	<vehicle depart="0.1" departLane="0" departPos="10.979081952403437" departSpeed="5.9521188" id="325" type="passenger">
		<route edges="40631 40923"/>
	</vehicle>
	<vehicle depart="0.1" departLane="0" departPos="27.20347660037912" departSpeed="1.3904733" id="328" type="passenger">
		<route edges=":41_5 40632"/>
	</vehicle>
	<vehicle depart="0.1" departLane="0" departPos="58.99588626488407" departSpeed="0.027566046" id="343" type="passenger">
		<route edges="40926 40632"/>
	</vehicle>
	<vehicle depart="0.1" departLane="0" departPos="5.507526721560926" departSpeed="1.2591387" id="37" type="motorcycle">
		<route edges="40632 40569"/>
	</vehicle>
	<vehicle depart="0.1" departLane="0" departPos="69.02078007945097" departSpeed="0.0" id="335" type="truck">
		<route edges="40926 40632"/>
	</vehicle>
</routes>
