<!-- generated on Tue Feb  9 22:00:42 2021 by Eclipse SUMO netconvert Version 1.8.0
<configuration xmlns:xsi="http://www.w3.org/2001/XMLSchema-instance" xsi:noNamespaceSchemaLocation="http://sumo.dlr.de/xsd/netconvertConfiguration.xsd">

    <input>
        <node-files value="./converted_scenarios/scenario-factory/DEU_Backnang-2_3_I-1-1/DEU_Backnang-2_3_I-1-1.nod.xml"/>
        <edge-files value="./converted_scenarios/scenario-factory/DEU_Backnang-2_3_I-1-1/DEU_Backnang-2_3_I-1-1.edg.xml"/>
        <connection-files value="./converted_scenarios/scenario-factory/DEU_Backnang-2_3_I-1-1/DEU_Backnang-2_3_I-1-1.con.xml"/>
        <tllogic-files value="./converted_scenarios/scenario-factory/DEU_Backnang-2_3_I-1-1/DEU_Backnang-2_3_I-1-1.tll.xml"/>
        <type-files value="/home/zen/commonroad-interactive-benchmarks/install/commonroad-map-tool/crmapconverter/sumo_map/templates/DEU.typ.xml"/>
    </input>

    <output>
        <output-file value="./converted_scenarios/scenario-factory/DEU_Backnang-2_3_I-1-1/DEU_Backnang-2_3_I-1-1.net.xml"/>
    </output>

    <processing>
        <geometry.remove.keep-edges.explicit value="true"/>
        <geometry.avoid-overlap value="true"/>
        <offset.disable-normalization value="true"/>
    </processing>

    <junctions>
        <no-turnarounds value="true"/>
        <junctions.internal-link-detail value="20"/>
    </junctions>

    <report>
        <aggregate-warnings value="5"/>
    </report>

    <random_number>
        <seed value="1234"/>
    </random_number>

</configuration>
--><net xmlns:xsi="http://www.w3.org/2001/XMLSchema-instance" version="1.6" junctionCornerDetail="5" junctionLinkDetail="20" limitTurnSpeed="5.50" xsi:noNamespaceSchemaLocation="http://sumo.dlr.de/xsd/net_file.xsd">

    <location netOffset="0.00,0.00" convBoundary="-804.51,172.04,-502.96,387.38" origBoundary="-804.51,172.04,-502.96,387.38" projParameter="!"/>

    <type id="highway.bridleway" priority="1" speed="2.78" allow="pedestrian" oneway="1" width="2.00"/>
    <type id="highway.bus_guideway" priority="1" speed="27.78" allow="bus" oneway="1"/>
    <type id="highway.cycleway" priority="1" speed="8.33" allow="bicycle" oneway="0" width="1.00"/>
    <type id="highway.footway" priority="1" speed="2.78" allow="pedestrian" oneway="1" width="2.00"/>
    <type id="highway.ford" priority="1" speed="2.78" allow="army" oneway="0"/>
    <type id="highway.living_street" priority="2" speed="2.78" disallow="tram rail_urban rail rail_electric rail_fast ship" oneway="0"/>
    <type id="highway.motorway" priority="14" speed="39.44" allow="private emergency authority army vip passenger hov taxi bus coach delivery truck trailer motorcycle evehicle custom1 custom2" oneway="1"/>
    <type id="highway.motorway_link" priority="9" speed="22.22" allow="private emergency authority army vip passenger hov taxi bus coach delivery truck trailer motorcycle evehicle custom1 custom2" oneway="1"/>
    <type id="highway.path" priority="1" speed="2.78" allow="pedestrian bicycle" oneway="0" width="2.00"/>
    <type id="highway.pedestrian" priority="1" speed="2.78" allow="pedestrian" oneway="1" width="2.00"/>
    <type id="highway.primary" priority="12" speed="27.78" disallow="pedestrian tram rail_urban rail rail_electric rail_fast ship" oneway="0"/>
    <type id="highway.primary_link" priority="7" speed="22.22" disallow="pedestrian tram rail_urban rail rail_electric rail_fast ship" oneway="0"/>
    <type id="highway.raceway" priority="15" speed="83.33" allow="vip" oneway="0"/>
    <type id="highway.residential" priority="3" speed="13.89" disallow="pedestrian tram rail_urban rail rail_electric rail_fast ship" oneway="0"/>
    <type id="highway.secondary" priority="11" speed="27.78" disallow="pedestrian tram rail_urban rail rail_electric rail_fast ship" oneway="0"/>
    <type id="highway.secondary_link" priority="6" speed="22.22" disallow="pedestrian tram rail_urban rail rail_electric rail_fast ship" oneway="0"/>
    <type id="highway.service" priority="1" speed="5.56" allow="pedestrian delivery bicycle" oneway="0"/>
    <type id="highway.stairs" priority="1" speed="1.39" allow="pedestrian" oneway="1" width="2.00"/>
    <type id="highway.step" priority="1" speed="1.39" allow="pedestrian" oneway="1" width="2.00"/>
    <type id="highway.steps" priority="1" speed="1.39" allow="pedestrian" oneway="1" width="2.00"/>
    <type id="highway.tertiary" priority="10" speed="22.22" disallow="pedestrian tram rail_urban rail rail_electric rail_fast ship" oneway="0"/>
    <type id="highway.tertiary_link" priority="5" speed="22.22" disallow="pedestrian tram rail_urban rail rail_electric rail_fast ship" oneway="0"/>
    <type id="highway.track" priority="1" speed="5.56" allow="pedestrian motorcycle moped bicycle" oneway="0"/>
    <type id="highway.trunk" priority="13" speed="27.78" disallow="pedestrian bicycle tram rail_urban rail rail_electric rail_fast ship" oneway="0"/>
    <type id="highway.trunk_link" priority="8" speed="22.22" disallow="pedestrian bicycle tram rail_urban rail rail_electric rail_fast ship" oneway="0"/>
    <type id="highway.unclassified" priority="4" speed="13.89" disallow="pedestrian tram rail_urban rail rail_electric rail_fast ship" oneway="0"/>
    <type id="highway.unsurfaced" priority="1" speed="8.33" disallow="tram rail_urban rail rail_electric rail_fast ship" oneway="0"/>
    <type id="railway.highspeed" priority="21" speed="69.44" allow="rail_fast" oneway="1"/>
    <type id="railway.light_rail" priority="19" speed="27.78" allow="rail_urban" oneway="1"/>
    <type id="railway.preserved" priority="16" speed="27.78" allow="rail" oneway="1"/>
    <type id="railway.rail" priority="20" speed="44.44" allow="rail" oneway="1"/>
    <type id="railway.subway" priority="18" speed="27.78" allow="rail_urban" oneway="1"/>
    <type id="railway.tram" priority="17" speed="13.89" allow="tram" oneway="1"/>

    <edge id=":25_0" function="internal">
        <lane id=":25_0_0" index="0" disallow="pedestrian tram rail_urban rail rail_electric rail_fast ship" speed="36.11" length="2.93" width="3.50" shape="-729.30,320.07 -726.49,319.25"/>
    </edge>
    <edge id=":26_0" function="internal">
        <lane id=":26_0_0" index="0" disallow="pedestrian tram rail_urban rail rail_electric rail_fast ship" speed="36.11" length="3.08" width="3.50" shape="-670.02,318.38 -667.05,317.57"/>
    </edge>
    <edge id=":30_0" function="internal">
        <lane id=":30_0_0" index="0" disallow="pedestrian tram rail_urban rail rail_electric rail_fast ship" speed="36.11" length="3.01" width="3.50" shape="-739.54,344.96 -740.29,342.05"/>
    </edge>
    <edge id=":38_0" function="internal">
        <lane id=":38_0_0" index="0" disallow="pedestrian tram rail_urban rail rail_electric rail_fast ship" speed="36.11" length="2.91" width="3.48" shape="-666.19,320.97 -669.00,321.71"/>
    </edge>
    <edge id=":41_0" function="internal">
        <lane id=":41_0_0" index="0" disallow="pedestrian tram rail_urban rail rail_electric rail_fast ship" speed="11.30" length="28.79" width="3.50" shape="-714.33,217.05 -715.05,214.87 -715.93,212.77 -716.97,210.79 -718.22,208.97 -719.69,207.34 -720.48,206.65 -721.33,206.02 -722.23,205.46 -723.18,204.98 -724.16,204.58 -725.19,204.27 -726.21,204.03 -728.41,203.77 -730.63,203.79 -732.86,204.03 -736.27,204.76"/>
    </edge>
    <edge id=":41_1" function="internal">
        <lane id=":41_1_0" index="0" disallow="pedestrian tram rail_urban rail rail_electric rail_fast ship" speed="12.10" length="33.93" width="3.50" shape="-714.33,217.05 -714.96,214.60 -715.41,212.09 -715.62,209.52 -715.54,206.90 -715.10,204.32 -714.71,203.00 -714.23,201.74 -713.63,200.52 -712.92,199.37 -712.12,198.28 -711.23,197.27 -710.24,196.32 -708.18,194.73 -705.94,193.40 -703.60,192.33 -700.05,191.12"/>
    </edge>
    <edge id=":41_2" function="internal">
        <lane id=":41_2_0" index="0" disallow="pedestrian tram rail_urban rail rail_electric rail_fast ship" speed="11.09" length="28.34" width="3.50" shape="-699.07,194.48 -702.17,195.53 -704.15,196.44 -706.03,197.55 -707.75,198.88 -708.53,199.64 -709.25,200.46 -709.90,201.34 -710.47,202.27 -710.95,203.24 -711.34,204.26 -711.65,205.31 -712.02,207.45 -712.08,209.63 -711.90,211.81 -711.52,213.95 -710.98,216.07"/>
    </edge>
    <edge id=":41_3" function="internal">
        <lane id=":41_3_0" index="0" disallow="pedestrian tram rail_urban rail rail_electric rail_fast ship" speed="36.11" length="38.59" width="3.50" shape="-699.07,194.48 -733.22,203.94 -736.27,204.76"/>
    </edge>
    <edge id=":41_4" function="internal">
        <lane id=":41_4_0" index="0" disallow="pedestrian tram rail_urban rail rail_electric rail_fast ship" speed="36.11" length="38.52" width="3.50" shape="-737.18,201.38 -734.13,200.56 -700.05,191.12"/>
    </edge>
    <edge id=":41_5" function="internal">
        <lane id=":41_5_0" index="0" disallow="pedestrian tram rail_urban rail rail_electric rail_fast ship" speed="12.29" length="34.29" width="3.50" shape="-737.18,201.38 -733.28,200.55 -730.66,200.26 -728.03,200.25 -725.41,200.55 -724.12,200.85 -722.87,201.24 -721.65,201.73 -720.47,202.32 -719.35,203.02 -718.29,203.80 -717.30,204.68 -715.54,206.63 -714.05,208.80 -712.82,211.13 -711.80,213.56 -710.98,216.07"/>
    </edge>
    <edge id=":42_0" function="internal">
        <lane id=":42_0_0" index="0" disallow="pedestrian tram rail_urban rail rail_electric rail_fast ship" speed="11.26" length="28.85" width="3.50" shape="-585.13,248.84 -585.88,246.66 -586.77,244.56 -587.84,242.58 -589.10,240.76 -590.59,239.13 -591.38,238.45 -592.23,237.81 -593.14,237.26 -594.09,236.79 -595.08,236.40 -596.10,236.09 -597.13,235.87 -599.33,235.65 -601.56,235.71 -603.78,236.00 -607.18,236.81"/>
    </edge>
    <edge id=":42_1" function="internal">
        <lane id=":42_1_0" index="0" disallow="pedestrian tram rail_urban rail rail_electric rail_fast ship" speed="36.11" length="38.70" width="3.50" shape="-570.02,226.01 -588.58,231.41 -607.18,236.81"/>
    </edge>
    <edge id=":42_2" function="internal">
        <lane id=":42_2_0" index="0" disallow="pedestrian tram rail_urban rail rail_electric rail_fast ship" speed="36.11" length="38.68" width="3.50" shape="-608.17,233.46 -589.57,228.05 -571.03,222.66"/>
    </edge>
    <edge id=":42_3" function="internal">
        <lane id=":42_3_0" index="0" disallow="pedestrian tram rail_urban rail rail_electric rail_fast ship" speed="12.26" length="34.39" width="3.50" shape="-608.17,233.46 -604.28,232.53 -601.66,232.18 -599.02,232.11 -596.39,232.37 -595.10,232.65 -593.83,233.03 -592.60,233.51 -591.42,234.10 -590.29,234.78 -589.22,235.57 -588.23,236.44 -586.44,238.39 -584.94,240.56 -583.68,242.88 -582.64,245.31 -581.79,247.81"/>
    </edge>
    <edge id=":43_0" function="internal">
        <lane id=":43_0_0" index="0" disallow="pedestrian tram rail_urban rail rail_electric rail_fast ship" speed="10.17" length="21.41" width="3.50" shape="-684.59,318.34 -685.57,316.14 -686.33,315.50 -687.24,315.09 -688.21,314.84 -689.21,314.71 -690.21,314.65 -692.21,314.71 -694.20,314.90 -697.17,315.37 -701.09,316.20 -703.98,316.93"/>
    </edge>
    <edge id=":43_1" function="internal">
        <lane id=":43_1_0" index="0" disallow="pedestrian tram rail_urban rail rail_electric rail_fast ship" speed="36.11" length="27.84" width="3.50" shape="-684.59,318.34 -688.82,304.34 -692.54,291.66"/>
    </edge>
    <edge id=":43_2" function="internal">
        <lane id=":43_2_0" index="0" disallow="pedestrian tram rail_urban rail rail_electric rail_fast ship" speed="36.11" length="27.67" width="3.50" shape="-689.18,290.68 -685.46,303.35 -681.27,317.19"/>
    </edge>
    <edge id=":43_3" function="internal">
        <lane id=":43_3_0" index="0" disallow="pedestrian tram rail_urban rail rail_electric rail_fast ship" speed="12.15" length="34.66" width="3.50" shape="-689.18,290.68 -688.30,294.44 -687.96,297.05 -687.89,299.70 -688.15,302.35 -688.44,303.71 -688.83,305.03 -689.34,306.31 -689.97,307.55 -690.70,308.72 -691.54,309.82 -692.46,310.84 -693.48,311.80 -695.61,313.39 -697.92,314.70 -700.33,315.76 -703.98,316.93"/>
    </edge>
    <edge id=":43_4" function="internal">
        <lane id=":43_4_0" index="0" disallow="pedestrian tram rail_urban rail rail_electric rail_fast ship" speed="11.15" length="28.99" width="3.50" shape="-704.89,313.55 -701.71,312.53 -699.67,311.64 -697.73,310.54 -695.94,309.20 -695.13,308.44 -694.38,307.61 -693.71,306.72 -693.11,305.77 -692.61,304.78 -692.20,303.74 -691.88,302.67 -691.65,301.58 -691.43,299.36 -691.49,297.13 -691.78,294.92 -692.54,291.66"/>
    </edge>
    <edge id=":43_5" function="internal">
        <lane id=":43_5_0" index="0" disallow="pedestrian tram rail_urban rail rail_electric rail_fast ship" speed="12.29" length="26.49" width="3.50" shape="-704.89,313.55 -701.53,312.72 -696.98,311.82 -693.48,311.39 -691.07,311.28 -688.64,311.41 -687.35,311.62 -686.07,311.98 -684.80,312.53 -683.59,313.35 -682.53,314.48 -681.27,317.19"/>
    </edge>
    <edge id=":44_0" function="internal">
        <lane id=":44_0_0" index="0" disallow="pedestrian tram rail_urban rail rail_electric rail_fast ship" speed="36.11" length="38.86" width="3.50" shape="-695.56,281.30 -701.00,262.65 -706.44,243.99"/>
    </edge>
    <edge id=":44_1" function="internal">
        <lane id=":44_1_0" index="0" disallow="pedestrian tram rail_urban rail rail_electric rail_fast ship" speed="12.19" length="34.07" width="3.50" shape="-695.56,281.30 -696.18,278.84 -696.62,276.32 -696.83,273.74 -696.74,271.12 -696.31,268.53 -695.92,267.20 -695.44,265.94 -694.84,264.72 -694.14,263.55 -693.35,262.46 -692.47,261.44 -691.49,260.48 -689.44,258.85 -687.21,257.50 -684.87,256.39 -681.29,255.12"/>
    </edge>
    <edge id=":44_2" function="internal">
        <lane id=":44_2_0" index="0" disallow="pedestrian tram rail_urban rail rail_electric rail_fast ship" speed="11.18" length="28.50" width="3.50" shape="-680.30,258.48 -683.40,259.57 -685.38,260.51 -687.26,261.65 -688.97,263.01 -689.75,263.78 -690.47,264.61 -691.11,265.50 -691.68,266.44 -692.16,267.43 -692.55,268.45 -692.86,269.50 -693.22,271.66 -693.29,273.85 -693.11,276.04 -692.74,278.20 -692.19,280.32"/>
    </edge>
    <edge id=":44_3" function="internal">
        <lane id=":44_3_0" index="0" disallow="pedestrian tram rail_urban rail rail_electric rail_fast ship" speed="12.19" length="34.31" width="3.50" shape="-680.30,258.48 -684.15,259.40 -686.77,259.74 -689.40,259.81 -692.03,259.54 -693.32,259.26 -694.58,258.88 -695.81,258.39 -696.99,257.80 -698.11,257.10 -699.16,256.31 -700.15,255.43 -701.91,253.47 -703.38,251.28 -704.61,248.94 -705.62,246.50 -706.44,243.99"/>
    </edge>
    <edge id=":44_4" function="internal">
        <lane id=":44_4_0" index="0" disallow="pedestrian tram rail_urban rail rail_electric rail_fast ship" speed="11.19" length="28.74" width="3.50" shape="-703.09,242.99 -702.37,245.20 -701.50,247.30 -700.46,249.29 -699.23,251.12 -697.76,252.76 -696.98,253.45 -696.14,254.09 -695.24,254.64 -694.30,255.12 -693.31,255.51 -692.30,255.82 -691.28,256.05 -689.08,256.27 -686.86,256.22 -684.65,255.92 -681.29,255.12"/>
    </edge>
    <edge id=":44_5" function="internal">
        <lane id=":44_5_0" index="0" disallow="pedestrian tram rail_urban rail rail_electric rail_fast ship" speed="36.11" length="38.89" width="3.50" shape="-703.09,242.99 -697.64,261.67 -692.19,280.32"/>
    </edge>

    <edge id="40515" from="42" to="32" priority="3" type="highway.residential" spreadType="center" length="25.54" shape="-585.57,235.35 -574.32,272.23">
        <lane id="40515_0" index="0" disallow="pedestrian tram rail_urban rail rail_electric rail_fast ship" speed="36.11" length="25.54" width="3.50" customShape="1" shape="-581.79,247.81 -578.05,260.02 -574.32,272.23"/>
    </edge>
    <edge id="40516" from="37" to="42" priority="3" type="highway.residential" spreadType="center" length="25.53" shape="-577.66,273.25 -588.91,236.36">
        <lane id="40516_0" index="0" disallow="pedestrian tram rail_urban rail rail_electric rail_fast ship" speed="36.11" length="25.53" width="3.50" customShape="1" shape="-577.66,273.25 -581.40,261.04 -585.13,248.84"/>
    </edge>
    <edge id="40568" from="42" to="44" priority="3" type="highway.residential" spreadType="center" length="76.26" shape="-586.82,237.63 -692.78,262.07">
        <lane id="40568_0" index="0" disallow="pedestrian tram rail_urban rail rail_electric rail_fast ship" speed="36.11" length="76.26" width="3.50" customShape="1" shape="-607.18,236.81 -643.72,247.64 -680.30,258.48"/>
    </edge>
    <edge id="40569" from="44" to="42" priority="3" type="highway.residential" spreadType="center" length="76.29" shape="-693.57,258.67 -587.61,234.23">
        <lane id="40569_0" index="0" disallow="pedestrian tram rail_urban rail rail_electric rail_fast ship" speed="36.11" length="76.29" width="3.50" customShape="1" shape="-681.29,255.12 -644.71,244.28 -608.14,233.45"/>
    </edge>
    <edge id="40571" from="36" to="42" priority="3" type="highway.residential" spreadType="center" length="70.01" shape="-502.96,205.95 -586.63,237.58">
        <lane id="40571_0" index="0" disallow="pedestrian tram rail_urban rail rail_electric rail_fast ship" speed="36.11" length="70.01" width="3.50" customShape="1" shape="-502.96,205.95 -512.87,208.77 -549.35,219.85 -570.03,226.01"/>
    </edge>
    <edge id="40572" from="42" to="33" priority="3" type="highway.residential" spreadType="center" length="70.00" shape="-587.86,234.31 -503.97,202.60">
        <lane id="40572_0" index="0" disallow="pedestrian tram rail_urban rail rail_electric rail_fast ship" speed="36.11" length="70.00" width="3.50" customShape="1" shape="-571.03,222.66 -550.32,216.49 -513.80,205.40 -503.97,202.60"/>
    </edge>
    <edge id="40589" from="43" to="18" priority="3" type="highway.residential" spreadType="center" length="23.80" shape="-692.19,309.22 -726.99,323.00">
        <lane id="40589_0" index="0" disallow="pedestrian tram rail_urban rail rail_electric rail_fast ship" speed="36.11" length="23.80" width="3.50" customShape="1" shape="-703.98,316.93 -715.51,319.97 -726.99,323.00"/>
    </edge>
    <edge id="40590" from="25" to="43" priority="3" type="highway.residential" spreadType="center" length="22.36" shape="-727.90,319.63 -693.48,305.97">
        <lane id="40590_0" index="0" disallow="pedestrian tram rail_urban rail rail_electric rail_fast ship" speed="36.11" length="22.36" width="3.50" customShape="1" shape="-726.49,319.25 -716.40,316.59 -704.87,313.54"/>
    </edge>
    <edge id="40631" from="44" to="41" priority="3" type="highway.residential" spreadType="center" length="28.07" shape="-694.74,261.08 -717.93,204.81">
        <lane id="40631_0" index="0" disallow="pedestrian tram rail_urban rail rail_electric rail_fast ship" speed="36.11" length="28.07" width="3.50" customShape="1" shape="-706.44,243.99 -710.39,230.52 -714.34,217.05"/>
    </edge>
    <edge id="40632" from="41" to="44" priority="3" type="highway.residential" spreadType="center" length="28.07" shape="-714.69,203.48 -691.51,259.75">
        <lane id="40632_0" index="0" disallow="pedestrian tram rail_urban rail rail_electric rail_fast ship" speed="36.11" length="28.07" width="3.50" customShape="1" shape="-710.98,216.07 -707.03,229.54 -703.08,243.01"/>
    </edge>
    <edge id="40634" from="43" to="44" priority="3" type="highway.residential" spreadType="center" length="10.81" shape="-694.66,307.64 -694.90,260.31">
        <lane id="40634_0" index="0" disallow="pedestrian tram rail_urban rail rail_electric rail_fast ship" speed="36.11" length="10.81" width="3.50" customShape="1" shape="-692.54,291.66 -694.05,286.48 -695.56,281.28"/>
    </edge>
    <edge id="40635" from="44" to="43" priority="3" type="highway.residential" spreadType="center" length="10.82" shape="-691.40,260.29 -691.16,307.62">
        <lane id="40635_0" index="0" disallow="pedestrian tram rail_urban rail rail_electric rail_fast ship" speed="36.11" length="10.82" width="3.50" customShape="1" shape="-692.19,280.32 -690.69,285.50 -689.18,290.71"/>
    </edge>
    <edge id="40637" from="38" to="43" priority="3" type="highway.residential" spreadType="center" length="17.44" shape="-667.58,321.37 -693.74,309.16">
        <lane id="40637_0" index="0" disallow="pedestrian tram rail_urban rail rail_electric rail_fast ship" speed="36.11" length="17.44" width="3.48" customShape="1" shape="-669.00,321.71 -671.77,322.39 -674.61,322.77 -676.04,322.84 -677.47,322.80 -678.90,322.61 -680.28,322.25 -681.59,321.67 -682.77,320.85 -683.75,319.81 -684.50,318.59 -684.59,318.34"/>
    </edge>
    <edge id="40646" from="39" to="38" priority="3" type="highway.residential" spreadType="center" length="68.55">
        <lane id="40646_0" index="0" disallow="pedestrian tram rail_urban rail rail_electric rail_fast ship" speed="36.11" length="68.55" width="3.50" customShape="1" shape="-600.39,301.76 -628.09,309.85 -666.19,320.97"/>
    </edge>
    <edge id="40647" from="26" to="27" priority="3" type="highway.residential" spreadType="center" length="68.46">
        <lane id="40647_0" index="0" disallow="pedestrian tram rail_urban rail rail_electric rail_fast ship" speed="36.11" length="68.46" width="3.50" customShape="1" shape="-667.05,317.57 -629.07,306.49 -601.33,298.39"/>
    </edge>
    <edge id="40915" from="31" to="30" priority="3" type="highway.residential" spreadType="center" length="44.05">
        <lane id="40915_0" index="0" disallow="pedestrian tram rail_urban rail rail_electric rail_fast ship" speed="36.11" length="44.05" width="3.50" customShape="1" shape="-727.65,387.38 -733.80,365.45 -739.54,344.96"/>
    </edge>
    <edge id="40923" from="41" to="22" priority="3" type="highway.residential" spreadType="center" length="70.00" shape="-715.92,205.85 -803.63,223.79">
        <lane id="40923_0" index="0" disallow="pedestrian tram rail_urban rail rail_electric rail_fast ship" speed="36.11" length="70.00" width="3.50" customShape="1" shape="-736.27,204.76 -763.92,212.25 -788.12,219.13 -803.63,223.79"/>
    </edge>
    <edge id="40924" from="29" to="41" priority="3" type="highway.residential" spreadType="center" length="70.00" shape="-804.51,220.40 -716.62,202.42">
        <lane id="40924_0" index="0" disallow="pedestrian tram rail_urban rail rail_electric rail_fast ship" speed="36.11" length="70.00" width="3.50" customShape="1" shape="-804.51,220.40 -789.09,215.77 -764.85,208.88 -737.15,201.37"/>
    </edge>
    <edge id="40926" from="28" to="41" priority="3" type="highway.residential" spreadType="center" length="70.02" shape="-631.72,175.40 -715.74,205.80">
        <lane id="40926_0" index="0" disallow="pedestrian tram rail_urban rail rail_electric rail_fast ship" speed="36.11" length="70.02" width="3.50" customShape="1" shape="-631.72,175.40 -699.09,194.49"/>
    </edge>
    <edge id="40927" from="41" to="21" priority="3" type="highway.residential" spreadType="center" length="70.00" shape="-716.93,202.51 -632.70,172.04">
        <lane id="40927_0" index="0" disallow="pedestrian tram rail_urban rail rail_electric rail_fast ship" speed="36.11" length="70.00" width="3.50" customShape="1" shape="-700.05,191.12 -632.70,172.04"/>
    </edge>
    <edge id="41183" from="30" to="25" priority="3" type="highway.residential" spreadType="center" length="27.80">
        <lane id="41183_0" index="0" disallow="pedestrian tram rail_urban rail rail_electric rail_fast ship" speed="36.11" length="27.80" width="3.50" customShape="1" shape="-740.29,342.05 -740.74,340.12 -741.14,337.24 -741.21,334.34 -740.97,332.03 -740.41,329.78 -739.50,327.64 -738.58,326.16 -737.07,324.40 -735.29,322.91 -733.31,321.69 -730.67,320.50 -729.30,320.07"/>
    </edge>
    <edge id="41407" from="43" to="26" priority="3" type="highway.residential" spreadType="center" length="12.05" shape="-692.23,306.02 -668.53,318.00">
        <lane id="41407_0" index="0" disallow="pedestrian tram rail_urban rail rail_electric rail_fast ship" speed="36.11" length="12.05" width="3.50" customShape="1" shape="-681.27,317.19 -680.92,317.73 -680.28,318.32 -679.50,318.76 -678.59,319.07 -677.59,319.25 -676.53,319.33 -675.43,319.32 -674.32,319.23 -672.01,318.87 -670.02,318.38"/>
    </edge>

    <junction id="18" type="dead_end" x="-726.99" y="323.00" incLanes="40589_0" intLanes="" shape="-726.54,324.70 -727.44,321.31" rightOfWay="edgePriority"/>
    <junction id="21" type="dead_end" x="-632.70" y="172.04" incLanes="40927_0" intLanes="" shape="-633.17,170.36 -632.22,173.73" rightOfWay="edgePriority"/>
    <junction id="22" type="dead_end" x="-803.63" y="223.79" incLanes="40923_0" intLanes="" shape="-803.12,225.46 -804.13,222.11" rightOfWay="edgePriority"/>
    <junction id="25" type="priority" x="-727.90" y="319.63" incLanes="41183_0" intLanes=":25_0_0" shape="-726.05,320.94 -726.94,317.56 -729.83,318.40 -728.77,321.73" rightOfWay="edgePriority">
        <request index="0" response="0" foes="0" cont="0"/>
    </junction>
    <junction id="26" type="priority" x="-668.53" y="318.00" incLanes="41407_0" intLanes=":26_0_0" shape="-666.56,319.25 -667.54,315.89 -670.45,316.68 -669.60,320.07" rightOfWay="edgePriority">
        <request index="0" response="0" foes="0" cont="0"/>
    </junction>
    <junction id="27" type="dead_end" x="-601.33" y="298.39" incLanes="40647_0" intLanes="" shape="-601.82,296.71 -600.84,300.07" rightOfWay="edgePriority"/>
    <junction id="28" type="dead_end" x="-631.72" y="175.40" incLanes="" intLanes="" shape="-632.20,173.72 -631.24,177.09" rightOfWay="edgePriority"/>
    <junction id="29" type="dead_end" x="-804.51" y="220.40" incLanes="" intLanes="" shape="-804.01,222.07 -805.01,218.72" rightOfWay="edgePriority"/>
    <junction id="30" type="priority" x="-739.95" y="343.51" incLanes="40915_0" intLanes=":30_0_0" shape="-741.23,345.43 -737.86,344.49 -738.59,341.65 -741.99,342.45" rightOfWay="edgePriority">
        <request index="0" response="0" foes="0" cont="0"/>
    </junction>
    <junction id="31" type="dead_end" x="-727.65" y="387.38" incLanes="" intLanes="" shape="-725.97,386.91 -729.34,387.85" rightOfWay="edgePriority"/>
    <junction id="32" type="dead_end" x="-574.32" y="272.23" incLanes="40515_0" intLanes="" shape="-572.65,271.72 -575.99,272.74" rightOfWay="edgePriority"/>
    <junction id="33" type="dead_end" x="-503.97" y="202.60" incLanes="40572_0" intLanes="" shape="-504.45,200.91 -503.49,204.28" rightOfWay="edgePriority"/>
    <junction id="36" type="dead_end" x="-502.96" y="205.95" incLanes="" intLanes="" shape="-503.44,204.27 -502.48,207.63" rightOfWay="edgePriority"/>
    <junction id="37" type="dead_end" x="-577.66" y="273.25" incLanes="" intLanes="" shape="-575.99,272.74 -579.34,273.77" rightOfWay="edgePriority"/>
    <junction id="38" type="priority" x="-667.58" y="321.37" incLanes="40646_0" intLanes=":38_0_0" shape="-665.70,322.65 -666.68,319.29 -669.41,320.02 -668.59,323.41" rightOfWay="edgePriority">
        <request index="0" response="0" foes="0" cont="0"/>
    </junction>
    <junction id="39" type="dead_end" x="-600.39" y="301.76" incLanes="" intLanes="" shape="-600.88,300.08 -599.90,303.44" rightOfWay="edgePriority"/>
    <junction id="41" type="priority" x="-716.31" y="204.14" incLanes="40631_0 40926_0 40924_0" intLanes=":41_0_0 :41_1_0 :41_2_0 :41_3_0 :41_4_0 :41_5_0" shape="-716.01,217.54 -709.30,215.57 -710.23,210.83 -710.08,206.70 -708.84,203.16 -706.52,200.23 -703.11,197.90 -698.62,196.17 -700.52,189.44 -737.64,199.69 -735.81,206.45 -731.00,205.60 -726.80,205.84 -723.20,207.15 -720.20,209.53 -717.80,213.00">
        <request index="0" response="001000" foes="001000" cont="0"/>
        <request index="1" response="111000" foes="111000" cont="0"/>
        <request index="2" response="000000" foes="100000" cont="0"/>
        <request index="3" response="000000" foes="100011" cont="0"/>
        <request index="4" response="000000" foes="000010" cont="0"/>
        <request index="5" response="001100" foes="001110" cont="0"/>
    </junction>
    <junction id="42" type="priority" x="-587.21" y="235.93" incLanes="40516_0 40571_0 40569_0" intLanes=":42_0_0 :42_1_0 :42_2_0 :42_3_0" shape="-586.80,249.35 -580.11,247.30 -581.10,242.57 -580.99,238.42 -579.77,234.86 -577.46,231.88 -574.05,229.49 -569.53,227.69 -571.53,220.98 -608.67,231.78 -606.68,238.49 -601.91,237.54 -597.72,237.70 -594.12,238.96 -591.10,241.32 -588.66,244.78">
        <request index="0" response="0010" foes="0010" cont="0"/>
        <request index="1" response="0000" foes="1001" cont="0"/>
        <request index="2" response="0000" foes="0000" cont="0"/>
        <request index="3" response="0010" foes="0010" cont="0"/>
    </junction>
    <junction id="43" type="priority" x="-692.91" y="307.63" incLanes="40637_0 40635_0 40590_0" intLanes=":43_0_0 :43_1_0 :43_2_0 :43_3_0 :43_4_0 :43_5_0" shape="-686.24,318.91 -679.57,316.60 -683.40,312.31 -685.27,308.54 -685.89,304.85 -685.99,300.84 -686.28,296.10 -687.50,290.19 -694.22,292.15 -693.27,297.02 -693.44,301.26 -694.73,304.86 -697.14,307.83 -700.67,310.16 -705.32,311.85 -703.53,318.62 -698.73,317.49 -694.69,316.82 -691.43,316.64 -688.93,316.92 -687.20,317.68">
        <request index="0" response="000000" foes="001000" cont="0"/>
        <request index="1" response="110000" foes="111000" cont="0"/>
        <request index="2" response="100000" foes="100000" cont="0"/>
        <request index="3" response="100011" foes="100011" cont="0"/>
        <request index="4" response="000000" foes="000010" cont="0"/>
        <request index="5" response="000000" foes="001110" cont="0"/>
    </junction>
    <junction id="44" type="priority" x="-693.15" y="260.37" incLanes="40634_0 40568_0 40632_0" intLanes=":44_0_0 :44_1_0 :44_2_0 :44_3_0 :44_4_0 :44_5_0" shape="-697.23,281.79 -690.51,279.84 -691.44,275.07 -691.29,270.89 -690.05,267.31 -687.72,264.33 -684.30,261.94 -679.80,260.15 -681.79,253.44 -686.53,254.38 -690.68,254.22 -694.25,252.95 -697.22,250.58 -699.61,247.10 -701.41,242.52 -708.12,244.49">