<routes>
	<vehicle depart="0.1" departLane="0" departPos="21.899807258626367" departSpeed="5.5185716" id="36" type="bicycle">
		<route edges=":37_0 10806 10808 10800"/>
	</vehicle>
	<vehicle depart="0.1" departLane="0" departPos="8.325465041342792" departSpeed="7.2850847" id="35" type="passenger">
		<route edges=":39_1 10722 10700"/>
	</vehicle>
	<vehicle depart="0.1" departLane="0" departPos="30.56474654700702" departSpeed="0.16012891" id="38" type="passenger">
		<route edges=":40_5 10721"/>
	</vehicle>
	<vehicle depart="0.1" departLane="0" departPos="4.830827186535165" departSpeed="2.6515985" id="310" type="passenger">
		<route edges=":40_1 10728"/>
	</vehicle>
	<vehicle depart="0.1" departLane="0" departPos="43.81443155120871" departSpeed="0.041968547" id="312" type="passenger">
		<route edges="10727 10721"/>
	</vehicle>
	<vehicle depart="0.1" departLane="0" departPos="30.535040011596138" departSpeed="1.3308414" id="313" type="passenger">
		<route edges="10727 10721"/>
	</vehicle>
	<vehicle depart="0.1" departLane="0" departPos="29.665989831233677" departSpeed="6.4838124" id="315" type="passenger">
		<route edges=":40_1 10728"/>
	</vehicle>
	<vehicle depart="0.1" departLane="0" departPos="2.5" departSpeed="0.046354677" id="331" type="passenger">
		<route edges=":39_0 10808"/>
	</vehicle>
	<vehicle depart="0.1" departLane="0" departPos="16.79855427519923" departSpeed="0.0" id="334" type="passenger">
		<route edges="10701 10721"/>
	</vehicle>
	<vehicle depart="0.1" departLane="0" departPos="21.839157655910583" departSpeed="2.2418325" id="30" type="truck">
		<route edges=":40_4 10721"/>
	</vehicle>
</routes>
