<routes>
	<vehicle depart="0.1" departLane="0" departPos="32.9355001093196" departSpeed="0.0" id="31" type="passenger">
		<route edges="42242 42545"/>
	</vehicle>
	<vehicle depart="0.1" departLane="0" departPos="8.118857117143122" departSpeed="0.78182927" id="35" type="passenger">
		<route edges=":39_3 42548"/>
	</vehicle>
	<vehicle depart="0.1" departLane="0" departPos="28.063558182958833" departSpeed="0.33352991" id="38" type="passenger">
		<route edges="42542 42245"/>
	</vehicle>
	<vehicle depart="0.1" departLane="0" departPos="33.56685830934395" departSpeed="2.133216" id="313" type="passenger">
		<route edges="42542 42245"/>
	</vehicle>
	<vehicle depart="0.1" departLane="0" departPos="20.221605451054266" departSpeed="0.61921243" id="314" type="passenger">
		<route edges="42542 42245"/>
	</vehicle>
	<vehicle depart="0.1" departLane="0" departPos="21.082093065144594" departSpeed="5.4399307" id="323" type="passenger">
		<route edges=":37_10 42245"/>
	</vehicle>
	<vehicle depart="0.1" departLane="0" departPos="10.547633242505782" departSpeed="1.7643635" id="325" type="passenger">
		<route edges="42542 42245"/>
	</vehicle>
	<vehicle depart="0.1" departLane="0" departPos="16.082650785945628" departSpeed="0.68671445" id="30" type="truck">
		<route edges=":37_1 42545 42334"/>
	</vehicle>
	<vehicle depart="0.1" departLane="0" departPos="17.447022752421308" departSpeed="2.0965968" id="320" type="truck">
		<route edges=":37_0 42241"/>
	</vehicle>
</routes>
