<routes>
	<vehicle depart="0.1" departLane="0" departPos="18.067096756498596" departSpeed="0.027642037" id="340" type="bus">
		<route edges=":31_1 5929"/>
	</vehicle>
	<vehicle depart="0.1" departLane="0" departPos="2.5" departSpeed="0.0043802127" id="32" type="passenger">
		<route edges="5929 6027"/>
	</vehicle>
	<vehicle depart="0.1" departLane="0" departPos="69.9031371098529" departSpeed="0.0" id="33" type="passenger">
		<route edges="5487 5929"/>
	</vehicle>
	<vehicle depart="0.1" departLane="0" departPos="62.401723152399214" departSpeed="1.3906712e-05" id="34" type="passenger">
		<route edges="5487 5929"/>
	</vehicle>
	<vehicle depart="0.1" departLane="0" departPos="17.98301269339384" departSpeed="0.0022534874" id="38" type="passenger">
		<route edges="5929 6027"/>
	</vehicle>
	<vehicle depart="0.1" departLane="0" departPos="10.47739045292132" departSpeed="0.0035625976" id="315" type="passenger">
		<route edges="5929 6027"/>
	</vehicle>
	<vehicle depart="0.1" departLane="0" departPos="23.270228198522926" departSpeed="12.360155" id="332" type="passenger">
		<route edges=":31_3 5486"/>
	</vehicle>
	<vehicle depart="0.1" departLane="0" departPos="9.952295810512792" departSpeed="0.14930744" id="346" type="passenger">
		<route edges="5932 5929"/>
	</vehicle>
	<vehicle depart="0.1" departLane="0" departPos="25.252519854197853" departSpeed="1.1964256" id="329" type="motorcycle">
		<route edges=":31_1 5929"/>
	</vehicle>
	<vehicle depart="0.1" departLane="0" departPos="17.65723486804129" departSpeed="0.92735678" id="335" type="motorcycle">
		<route edges="5932 5929"/>
	</vehicle>
</routes>
