<routes>
	<vehicle depart="0.1" departLane="0" departPos="10.977947277520633" departSpeed="3.2058212" id="32" type="passenger">
		<route edges="47997 48067"/>
	</vehicle>
	<vehicle depart="0.1" departLane="0" departPos="8.672248390968532" departSpeed="5.3688007" id="312" type="passenger">
		<route edges=":44_5 48063 47783"/>
	</vehicle>
	<vehicle depart="0.1" departLane="0" departPos="17.792267250542753" departSpeed="0.0" id="320" type="passenger">
		<route edges="48064 47996"/>
	</vehicle>
	<vehicle depart="0.1" departLane="0" departPos="10.181100151111078" departSpeed="0.11619132" id="323" type="motorcycle">
		<route edges="48064 47996"/>
	</vehicle>
	<vehicle depart="0.1" departLane="0" departPos="3.75" departSpeed="0.67338444" id="316" type="truck">
		<route edges=":45_0 48066"/>
	</vehicle>
</routes>
