<!-- generated on 2020-12-18 15:53:58.247060 by ipykernel_launcher.py v1_2_0+5214-53edc58fcd
-->
<tlLogics/>
