<routes>
	<vehicle depart="0.1" departLane="2" departPos="71.65024447958626" departSpeed="13.719" id="438" type="passenger">
		<route edges="16"/>
	</vehicle>
	<vehicle depart="0.1" departLane="3" departPos="87.21787638451453" departSpeed="13.655" id="439" type="passenger">
		<route edges="16"/>
	</vehicle>
	<vehicle depart="0.1" departLane="4" departPos="93.36434439151412" departSpeed="14.0086" id="440" type="passenger">
		<route edges="16"/>
	</vehicle>
	<vehicle depart="0.1" departLane="0" departPos="83.79594065938119" departSpeed="14.9535" id="441" type="passenger">
		<route edges="16 16"/>
	</vehicle>
	<vehicle depart="0.1" departLane="5" departPos="78.89021480505491" departSpeed="13.8318" id="442" type="passenger">
		<route edges="16"/>
	</vehicle>
	<vehicle depart="0.1" departLane="3" departPos="69.99844204826219" departSpeed="13.6977" id="443" type="passenger">
		<route edges="16"/>
	</vehicle>
	<vehicle depart="0.1" departLane="1" departPos="63.06765244037963" departSpeed="15.746" id="445" type="passenger">
		<route edges="16"/>
	</vehicle>
	<vehicle depart="0.1" departLane="4" departPos="56.6125032791866" departSpeed="14.1061" id="446" type="passenger">
		<route edges="16"/>
	</vehicle>
	<vehicle depart="0.1" departLane="3" departPos="30.168856161664742" departSpeed="13.716" id="447" type="passenger">
		<route edges="16"/>
	</vehicle>
	<vehicle depart="0.1" departLane="1" departPos="28.346011587852253" departSpeed="13.716" id="449" type="passenger">
		<route edges="16"/>
	</vehicle>
	<vehicle depart="0.1" departLane="4" departPos="33.65596352556293" departSpeed="12.192" id="450" type="passenger">
		<route edges="16"/>
	</vehicle>
	<vehicle depart="0.1" departLane="5" departPos="42.332656290325545" departSpeed="9.1349" id="451" type="passenger">
		<route edges="16"/>
	</vehicle>
	<vehicle depart="0.1" departLane="0" departPos="72.10812764181627" departSpeed="18.2057" id="452" type="passenger">
		<route edges="17 16 16 16"/>
	</vehicle>
	<vehicle depart="0.1" departLane="4" departPos="21.01290014658522" departSpeed="12.1829" id="456" type="passenger">
		<route edges="16"/>
	</vehicle>
	<vehicle depart="0.1" departLane="3" departPos="0" departSpeed="12.576" id="457" type="passenger">
		<route edges="16"/>
	</vehicle>
	<vehicle depart="0.1" departLane="5" departPos="20.229229152593064" departSpeed="7.5895" id="458" type="passenger">
		<route edges="16"/>
	</vehicle>
	<vehicle depart="0.1" departLane="1" departPos="68.16353662484815" departSpeed="11.1465" id="462" type="passenger">
		<route edges="20 16"/>
	</vehicle>
	<vehicle depart="0.1" departLane="1" departPos="56.279233266922006" departSpeed="11.3325" id="464" type="passenger">
		<route edges="20 16"/>
	</vehicle>
	<vehicle depart="0.1" departLane="2" departPos="46.55301622025208" departSpeed="13.6855" id="467" type="passenger">
		<route edges="20 16"/>
	</vehicle>
	<vehicle depart="0.1" departLane="5" departPos="0" departSpeed="6.0168" id="468" type="passenger">
		<route edges="16"/>
	</vehicle>
	<vehicle depart="0.1" departLane="0" departPos="57.54450621976615" departSpeed="13.2344" id="469" type="passenger">
		<route edges="20 16"/>
	</vehicle>
	<vehicle depart="0.1" departLane="3" departPos="51.326357096191394" departSpeed="10.6589" id="472" type="passenger">
		<route edges="20 16"/>
	</vehicle>
	<vehicle depart="0.1" departLane="0" departPos="21.141427182012787" departSpeed="13.0454" id="473" type="passenger">
		<route edges="20 16 16"/>
	</vehicle>
	<vehicle depart="0.1" departLane="4" departPos="62.64380198416502" departSpeed="3.0297" id="475" type="passenger">
		<route edges="20 16"/>
	</vehicle>
	<vehicle depart="0.1" departLane="1" departPos="41.32049679091605" departSpeed="10.8204" id="476" type="passenger">
		<route edges="20 16"/>
	</vehicle>
	<vehicle depart="0.1" departLane="3" departPos="33.49185026008709" departSpeed="9.461" id="477" type="passenger">
		<route edges="20 16"/>
	</vehicle>
	<vehicle depart="0.1" departLane="1" departPos="13.893634445537991" departSpeed="9.147" id="481" type="passenger">
		<route edges="20 16"/>
	</vehicle>
	<vehicle depart="0.1" departLane="0" departPos="0" departSpeed="12.2712" id="482" type="passenger">
		<route edges="20 16"/>
	</vehicle>
	<vehicle depart="0.1" departLane="2" departPos="0" departSpeed="10.5461" id="483" type="passenger">
		<route edges="20 16"/>
	</vehicle>
	<vehicle depart="0.1" departLane="3" departPos="14.905465161262219" departSpeed="9.8115" id="484" type="passenger">
		<route edges="20 16"/>
	</vehicle>
	<vehicle depart="0.1" departLane="4" departPos="49.22736025232551" departSpeed="4.569" id="485" type="passenger">
		<route edges="20 16"/>
	</vehicle>
	<vehicle depart="0.1" departLane="1" departPos="0" departSpeed="9.397" id="486" type="passenger">
		<route edges="20 16 16"/>
	</vehicle>
	<vehicle depart="0.1" departLane="4" departPos="32.62227772004428" departSpeed="3.0206" id="493" type="passenger">
		<route edges="20 16"/>
	</vehicle>
	<vehicle depart="0.1" departLane="4" departPos="22.695033060306066" departSpeed="1.6337" id="494" type="passenger">
		<route edges="20 16"/>
	</vehicle>
	<vehicle depart="0.1" departLane="4" departPos="11.156213946298312" departSpeed="0.0" id="507" type="passenger">
		<route edges="20 16"/>
	</vehicle>
	<vehicle depart="0.1" departLane="4" departPos="0" departSpeed="0.0" id="523" type="passenger">
		<route edges="20 16"/>
	</vehicle>
</routes>
