<routes>
	<vehicle depart="0.1" departLane="0" departPos="7.79665592359167" departSpeed="3.6364134" id="37" type="bicycle">
		<route edges="51937 52801 52687"/>
	</vehicle>
	<vehicle depart="0.1" departLane="0" departPos="69.04771877902806" departSpeed="0.0" id="327" type="bus">
		<route edges="52798 51938"/>
	</vehicle>
	<vehicle depart="0.1" departLane="0" departPos="8.120294359437262" departSpeed="2.0101055e-05" id="36" type="passenger">
		<route edges="51938 52063"/>
	</vehicle>
	<vehicle depart="0.1" departLane="0" departPos="27.956700334890023" departSpeed="8.9259229" id="310" type="passenger">
		<route edges=":65_1 52797"/>
	</vehicle>
	<vehicle depart="0.1" departLane="0" departPos="20.25452352838588" departSpeed="0.0" id="340" type="passenger">
		<route edges="51938 52063"/>
	</vehicle>
	<vehicle depart="0.1" departLane="0" departPos="20.549015689953652" departSpeed="8.9314683" id="350" type="passenger">
		<route edges=":63_3 51940 51937"/>
	</vehicle>
	<vehicle depart="0.1" departLane="0" departPos="12.750101659002564" departSpeed="0.0" id="33" type="motorcycle">
		<route edges="51938 52063"/>
	</vehicle>
	<vehicle depart="0.1" departLane="0" departPos="32.653875466895144" departSpeed="0.0017267742" id="334" type="motorcycle">
		<route edges=":65_5 51938"/>
	</vehicle>
</routes>
