<!-- generated on Tue Feb  9 22:18:47 2021 by Eclipse SUMO netconvert Version 1.8.0
<configuration xmlns:xsi="http://www.w3.org/2001/XMLSchema-instance" xsi:noNamespaceSchemaLocation="http://sumo.dlr.de/xsd/netconvertConfiguration.xsd">

    <input>
        <node-files value="./converted_scenarios/scenario-factory/ESP_Monzon-2_4_I-1-1/ESP_Monzon-2_4_I-1-1.nod.xml"/>
        <edge-files value="./converted_scenarios/scenario-factory/ESP_Monzon-2_4_I-1-1/ESP_Monzon-2_4_I-1-1.edg.xml"/>
        <connection-files value="./converted_scenarios/scenario-factory/ESP_Monzon-2_4_I-1-1/ESP_Monzon-2_4_I-1-1.con.xml"/>
        <tllogic-files value="./converted_scenarios/scenario-factory/ESP_Monzon-2_4_I-1-1/ESP_Monzon-2_4_I-1-1.tll.xml"/>
        <type-files value="/home/zen/commonroad-interactive-benchmarks/install/commonroad-map-tool/crmapconverter/sumo_map/templates/DEU.typ.xml"/>
    </input>

    <output>
        <output-file value="./converted_scenarios/scenario-factory/ESP_Monzon-2_4_I-1-1/ESP_Monzon-2_4_I-1-1.net.xml"/>
    </output>

    <processing>
        <geometry.remove.keep-edges.explicit value="true"/>
        <geometry.avoid-overlap value="true"/>
        <offset.disable-normalization value="true"/>
    </processing>

    <junctions>
        <no-turnarounds value="true"/>
        <junctions.internal-link-detail value="20"/>
    </junctions>

    <report>
        <aggregate-warnings value="5"/>
    </report>

    <random_number>
        <seed value="1234"/>
    </random_number>

</configuration>
--><net xmlns:xsi="http://www.w3.org/2001/XMLSchema-instance" version="1.6" junctionCornerDetail="5" junctionLinkDetail="20" limitTurnSpeed="5.50" xsi:noNamespaceSchemaLocation="http://sumo.dlr.de/xsd/net_file.xsd">

    <location netOffset="0.00,0.00" convBoundary="433.25,-738.61,569.20,-565.62" origBoundary="433.25,-738.61,570.49,-564.40" projParameter="!"/>

    <type id="highway.bridleway" priority="1" speed="2.78" allow="pedestrian" oneway="1" width="2.00"/>
    <type id="highway.bus_guideway" priority="1" speed="27.78" allow="bus" oneway="1"/>
    <type id="highway.cycleway" priority="1" speed="8.33" allow="bicycle" oneway="0" width="1.00"/>
    <type id="highway.footway" priority="1" speed="2.78" allow="pedestrian" oneway="1" width="2.00"/>
    <type id="highway.ford" priority="1" speed="2.78" allow="army" oneway="0"/>
    <type id="highway.living_street" priority="2" speed="2.78" disallow="tram rail_urban rail rail_electric rail_fast ship" oneway="0"/>
    <type id="highway.motorway" priority="14" speed="39.44" allow="private emergency authority army vip passenger hov taxi bus coach delivery truck trailer motorcycle evehicle custom1 custom2" oneway="1"/>
    <type id="highway.motorway_link" priority="9" speed="22.22" allow="private emergency authority army vip passenger hov taxi bus coach delivery truck trailer motorcycle evehicle custom1 custom2" oneway="1"/>
    <type id="highway.path" priority="1" speed="2.78" allow="pedestrian bicycle" oneway="0" width="2.00"/>
    <type id="highway.pedestrian" priority="1" speed="2.78" allow="pedestrian" oneway="1" width="2.00"/>
    <type id="highway.primary" priority="12" speed="27.78" disallow="pedestrian tram rail_urban rail rail_electric rail_fast ship" oneway="0"/>
    <type id="highway.primary_link" priority="7" speed="22.22" disallow="pedestrian tram rail_urban rail rail_electric rail_fast ship" oneway="0"/>
    <type id="highway.raceway" priority="15" speed="83.33" allow="vip" oneway="0"/>
    <type id="highway.residential" priority="3" speed="13.89" disallow="pedestrian tram rail_urban rail rail_electric rail_fast ship" oneway="0"/>
    <type id="highway.secondary" priority="11" speed="27.78" disallow="pedestrian tram rail_urban rail rail_electric rail_fast ship" oneway="0"/>
    <type id="highway.secondary_link" priority="6" speed="22.22" disallow="pedestrian tram rail_urban rail rail_electric rail_fast ship" oneway="0"/>
    <type id="highway.service" priority="1" speed="5.56" allow="pedestrian delivery bicycle" oneway="0"/>
    <type id="highway.stairs" priority="1" speed="1.39" allow="pedestrian" oneway="1" width="2.00"/>
    <type id="highway.step" priority="1" speed="1.39" allow="pedestrian" oneway="1" width="2.00"/>
    <type id="highway.steps" priority="1" speed="1.39" allow="pedestrian" oneway="1" width="2.00"/>
    <type id="highway.tertiary" priority="10" speed="22.22" disallow="pedestrian tram rail_urban rail rail_electric rail_fast ship" oneway="0"/>
    <type id="highway.tertiary_link" priority="5" speed="22.22" disallow="pedestrian tram rail_urban rail rail_electric rail_fast ship" oneway="0"/>
    <type id="highway.track" priority="1" speed="5.56" allow="pedestrian motorcycle moped bicycle" oneway="0"/>
    <type id="highway.trunk" priority="13" speed="27.78" disallow="pedestrian bicycle tram rail_urban rail rail_electric rail_fast ship" oneway="0"/>
    <type id="highway.trunk_link" priority="8" speed="22.22" disallow="pedestrian bicycle tram rail_urban rail rail_electric rail_fast ship" oneway="0"/>
    <type id="highway.unclassified" priority="4" speed="13.89" disallow="pedestrian tram rail_urban rail rail_electric rail_fast ship" oneway="0"/>
    <type id="highway.unsurfaced" priority="1" speed="8.33" disallow="tram rail_urban rail rail_electric rail_fast ship" oneway="0"/>
    <type id="railway.highspeed" priority="21" speed="69.44" allow="rail_fast" oneway="1"/>
    <type id="railway.light_rail" priority="19" speed="27.78" allow="rail_urban" oneway="1"/>
    <type id="railway.preserved" priority="16" speed="27.78" allow="rail" oneway="1"/>
    <type id="railway.rail" priority="20" speed="44.44" allow="rail" oneway="1"/>
    <type id="railway.subway" priority="18" speed="27.78" allow="rail_urban" oneway="1"/>
    <type id="railway.tram" priority="17" speed="13.89" allow="tram" oneway="1"/>

    <edge id=":22_0" function="internal">
        <lane id=":22_0_0" index="0" disallow="pedestrian tram rail_urban rail rail_electric rail_fast ship" speed="11.00" length="24.93" width="3.50" shape="458.69,-677.54 457.44,-678.78 456.21,-679.90 454.98,-680.92 453.76,-681.83 452.56,-682.63 451.36,-683.32 450.17,-683.90 449.00,-684.38 447.83,-684.74 446.68,-684.99 445.54,-685.13 444.40,-685.17 443.28,-685.09 442.17,-684.91 441.07,-684.61 439.97,-684.21 438.89,-683.70 437.82,-683.07 436.76,-682.34"/>
    </edge>
    <edge id=":22_1" function="internal">
        <lane id=":22_1_0" index="0" disallow="pedestrian tram rail_urban rail rail_electric rail_fast ship" speed="21.58" length="49.32" width="3.50" shape="458.70,-677.53 457.19,-679.17 455.12,-681.76 453.25,-684.52 451.61,-687.41 450.19,-690.42 448.64,-694.54 447.45,-698.77 446.59,-703.06 446.02,-707.40 445.68,-712.82 445.68,-718.24 445.98,-723.62"/>
    </edge>
    <edge id=":22_2" function="internal">
        <lane id=":22_2_0" index="0" disallow="pedestrian tram rail_urban rail rail_electric rail_fast ship" speed="12.14" length="46.66" width="3.50" shape="458.70,-677.53 457.70,-678.59 454.93,-681.88 453.24,-684.31 451.82,-686.91 451.21,-688.34 450.73,-689.81 450.39,-691.35 450.23,-692.94 450.27,-694.57 450.54,-696.18 451.03,-697.74 451.73,-699.20 452.59,-700.55 453.58,-701.77 454.66,-702.87 455.81,-703.86 457.03,-704.78 459.51,-706.34 462.11,-707.67 466.09,-709.33 470.13,-710.69"/>
    </edge>
    <edge id=":22_3" function="internal">
        <lane id=":22_3_0" index="0" disallow="pedestrian tram rail_urban rail rail_electric rail_fast ship" speed="11.15" length="39.09" width="3.50" shape="471.17,-707.34 467.58,-706.14 464.08,-704.69 461.83,-703.55 459.69,-702.22 458.67,-701.47 457.71,-700.65 456.82,-699.77 456.01,-698.80 455.31,-697.75 454.75,-696.62 454.34,-695.43 454.11,-694.19 454.06,-692.93 454.17,-691.67 454.42,-690.44 454.80,-689.24 455.28,-688.07 456.48,-685.85 457.92,-683.78 460.35,-680.88 461.21,-679.97"/>
    </edge>
    <edge id=":22_4" function="internal">
        <lane id=":22_4_0" index="0" disallow="pedestrian tram rail_urban rail rail_electric rail_fast ship" speed="20.93" length="46.35" width="3.50" shape="449.47,-723.35 449.18,-718.21 449.17,-713.06 449.49,-707.92 450.01,-703.83 450.81,-699.79 451.91,-695.82 453.34,-691.95 454.65,-689.15 456.17,-686.46 457.89,-683.90 459.82,-681.48 461.21,-679.97"/>
    </edge>
    <edge id=":24_0" function="internal">
        <lane id=":24_0_0" index="0" disallow="pedestrian tram rail_urban rail rail_electric rail_fast ship" speed="36.11" length="43.92" width="3.50" shape="522.60,-646.54 505.94,-628.70 492.44,-614.62"/>
        <lane id=":24_0_1" index="1" disallow="pedestrian tram rail_urban rail rail_electric rail_fast ship" speed="36.11" length="43.83" width="3.50" shape="520.02,-648.91 503.41,-631.11 489.92,-617.05"/>
    </edge>
    <edge id=":24_2" function="internal">
        <lane id=":24_2_0" index="0" disallow="pedestrian tram rail_urban rail rail_electric rail_fast ship" speed="12.65" length="38.52" width="3.50" shape="520.02,-648.91 517.51,-646.39 514.77,-644.12 512.30,-642.49 509.64,-641.18 507.39,-640.44 505.06,-640.01 502.69,-639.93 500.34,-640.21 498.05,-640.82 495.85,-641.71 493.26,-643.15 490.85,-644.87 488.17,-647.20 486.90,-648.46"/>
    </edge>
    <edge id=":24_3" function="internal">
        <lane id=":24_3_0" index="0" disallow="pedestrian tram rail_urban rail rail_electric rail_fast ship" speed="11.15" length="29.69" width="3.50" shape="489.42,-650.89 491.60,-648.89 493.54,-647.51 495.65,-646.42 497.34,-645.85 499.09,-645.52 500.87,-645.46 502.64,-645.66 504.36,-646.11 506.56,-647.01 508.62,-648.19 511.01,-649.96 513.64,-652.36 514.87,-653.65"/>
    </edge>
    <edge id=":24_4" function="internal">
        <lane id=":24_4_0" index="0" disallow="pedestrian tram rail_urban rail rail_electric rail_fast ship" speed="13.06" length="38.56" width="3.50" shape="489.42,-650.89 492.09,-647.88 494.12,-645.09 495.57,-642.60 496.72,-639.96 497.38,-637.76 497.78,-635.49 497.88,-633.19 497.67,-630.90 497.18,-628.65 496.20,-625.95 494.87,-623.39 493.28,-620.99 491.10,-618.32 489.92,-617.05"/>
    </edge>
    <edge id=":24_5" function="internal">
        <lane id=":24_5_0" index="0" disallow="pedestrian tram rail_urban rail rail_electric rail_fast ship" speed="11.62" length="30.26" width="3.50" shape="484.90,-621.93 487.23,-624.53 489.29,-627.35 490.71,-629.89 491.58,-632.05 492.16,-634.30 492.38,-636.62 492.28,-638.36 491.80,-640.64 490.96,-642.81 489.82,-644.84 488.08,-647.17 486.90,-648.46"/>
    </edge>
    <edge id=":24_6" function="internal">
        <lane id=":24_6_0" index="0" disallow="pedestrian tram rail_urban rail rail_electric rail_fast ship" speed="36.11" length="43.64" width="3.50" shape="484.90,-621.93 498.33,-635.93 514.87,-653.65"/>
        <lane id=":24_6_1" index="1" disallow="pedestrian tram rail_urban rail rail_electric rail_fast ship" speed="36.11" length="43.74" width="3.50" shape="487.41,-619.49 500.87,-633.53 517.45,-651.28"/>
    </edge>

    <edge id="14542" from="20" to="22" priority="3" type="highway.residential" spreadType="center" length="47.29" shape="512.79,-726.81 460.14,-702.14">
        <lane id="14542_0" index="0" disallow="pedestrian tram rail_urban rail rail_electric rail_fast ship" speed="36.11" length="47.29" width="3.50" customShape="1" shape="512.79,-726.81 512.17,-725.35 511.03,-723.56 509.63,-721.97 507.99,-720.63 503.79,-718.36 499.98,-716.49 494.52,-714.41 488.00,-712.17 471.09,-707.32"/>
    </edge>
    <edge id="14543" from="22" to="19" priority="3" type="highway.residential" spreadType="center" length="44.12" shape="458.68,-705.32 509.55,-728.14">
        <lane id="14543_0" index="0" disallow="pedestrian tram rail_urban rail rail_electric rail_fast ship" speed="36.11" length="44.12" width="3.50" customShape="1" shape="470.13,-710.69 486.42,-715.34 492.66,-717.46 497.87,-719.41 501.46,-721.09 505.47,-723.23 506.84,-724.18 508.05,-725.44 509.02,-726.86 509.55,-728.14"/>
    </edge>
    <edge id="14686" from="21" to="22" priority="3" type="highway.residential" spreadType="center" length="15.06" shape="450.67,-738.35 461.14,-704.18">
        <lane id="14686_0" index="0" disallow="pedestrian tram rail_urban rail rail_electric rail_fast ship" speed="36.11" length="15.06" width="3.50" customShape="1" shape="450.67,-738.35 450.07,-730.84 449.47,-723.34"/>
    </edge>
    <edge id="14687" from="22" to="18" priority="3" type="highway.residential" spreadType="center" length="15.04" shape="457.79,-703.17 447.18,-738.61">
        <lane id="14687_0" index="0" disallow="pedestrian tram rail_urban rail rail_electric rail_fast ship" speed="36.11" length="15.04" width="3.50" customShape="1" shape="445.98,-723.62 446.58,-731.12 447.18,-738.61"/>
    </edge>
    <edge id="14719" from="24" to="6" priority="3" type="highway.residential" spreadType="center" length="70.00" shape="500.90,-637.65 442.42,-565.62">
        <lane id="14719_0" index="0" disallow="pedestrian tram rail_urban rail rail_electric rail_fast ship" speed="36.11" length="70.00" width="3.50" customShape="1" shape="492.44,-614.62 458.54,-579.71 443.67,-564.40"/>
        <lane id="14719_1" index="1" disallow="pedestrian tram rail_urban rail rail_electric rail_fast ship" speed="36.11" length="70.01" width="3.50" customShape="1" shape="489.93,-617.06 456.03,-582.15 441.16,-566.83"/>
    </edge>
    <edge id="14722" from="14" to="24" priority="3" type="highway.residential" spreadType="center" length="70.01" shape="437.39,-570.49 495.47,-642.05">
        <lane id="14722_0" index="0" disallow="pedestrian tram rail_urban rail rail_electric rail_fast ship" speed="36.11" length="70.02" width="3.50" customShape="1" shape="436.13,-571.70 451.01,-587.02 484.91,-621.93"/>
        <lane id="14722_1" index="1" disallow="pedestrian tram rail_urban rail rail_electric rail_fast ship" speed="36.11" length="70.01" width="3.50" customShape="1" shape="438.65,-569.27 453.52,-584.59 487.42,-619.50"/>
    </edge>
    <edge id="14724" from="15" to="24" priority="3" type="highway.residential" spreadType="center" length="69.89" shape="569.20,-698.74 500.33,-637.05">
        <lane id="14724_0" index="0" disallow="pedestrian tram rail_urban rail rail_electric rail_fast ship" speed="36.11" length="69.89" width="3.50" customShape="1" shape="570.41,-697.48 564.61,-691.94 557.33,-684.41 545.58,-671.49 522.59,-646.53"/>
        <lane id="14724_1" index="1" disallow="pedestrian tram rail_urban rail rail_electric rail_fast ship" speed="36.11" length="70.11" width="3.50" customShape="1" shape="568.00,-700.01 562.18,-694.46 554.83,-686.87 543.07,-673.92 520.02,-648.91"/>
    </edge>
    <edge id="14727" from="24" to="9" priority="3" type="highway.residential" spreadType="center" length="69.89" shape="495.66,-642.26 564.05,-703.50">
        <lane id="14727_0" index="0" disallow="pedestrian tram rail_urban rail rail_electric rail_fast ship" speed="36.11" length="70.12" width="3.50" customShape="1" shape="514.87,-653.65 538.15,-678.92 550.09,-692.04 557.53,-699.71 562.85,-704.76"/>
        <lane id="14727_1" index="1" disallow="pedestrian tram rail_urban rail rail_electric rail_fast ship" speed="36.11" length="69.89" width="3.50" customShape="1" shape="517.45,-651.28 540.61,-676.42 552.46,-689.46 559.85,-697.08 565.26,-702.23"/>
    </edge>
    <edge id="14942" from="22" to="24" priority="3" type="highway.residential" spreadType="center" length="40.51" shape="460.94,-704.65 499.61,-640.62">
        <lane id="14942_0" index="0" disallow="pedestrian tram rail_urban rail rail_electric rail_fast ship" speed="36.11" length="40.51" width="3.50" customShape="1" shape="461.21,-679.97 475.32,-665.43 489.42,-650.89"/>
    </edge>
    <edge id="14943" from="24" to="22" priority="3" type="highway.residential" spreadType="center" length="40.51" shape="496.62,-638.81 457.94,-702.85">
        <lane id="14943_0" index="0" disallow="pedestrian tram rail_urban rail rail_electric rail_fast ship" speed="36.11" length="40.51" width="3.50" customShape="1" shape="486.90,-648.46 472.80,-662.99 458.69,-677.54"/>
    </edge>
    <edge id="17165" from="22" to="23" priority="3" type="highway.residential" spreadType="center" length="4.79">
        <lane id="17165_0" index="0" disallow="pedestrian tram rail_urban rail rail_electric rail_fast ship" speed="36.11" length="4.79" width="3.50" customShape="1" shape="436.76,-682.34 435.79,-681.61 433.65,-679.55 433.25,-679.10"/>
    </edge>

    <junction id="14" type="dead_end" x="437.39" y="-570.49" incLanes="" intLanes="" shape="439.90,-568.05 434.88,-572.93" rightOfWay="edgePriority"/>
    <junction id="15" type="dead_end" x="569.20" y="-698.74" incLanes="" intLanes="" shape="566.79,-701.27 571.62,-696.21" rightOfWay="edgePriority"/>
    <junction id="18" type="dead_end" x="447.18" y="-738.61" incLanes="14687_0" intLanes="" shape="445.44,-738.75 448.93,-738.47" rightOfWay="edgePriority"/>
    <junction id="19" type="dead_end" x="509.55" y="-728.14" incLanes="14543_0" intLanes="" shape="507.93,-728.81 511.17,-727.47" rightOfWay="edgePriority"/>
    <junction id="20" type="dead_end" x="512.79" y="-726.81" incLanes="" intLanes="" shape="511.18,-727.49 514.40,-726.14" rightOfWay="edgePriority"/>
    <junction id="21" type="dead_end" x="450.67" y="-738.35" incLanes="" intLanes="" shape="448.93,-738.49 452.42,-738.21" rightOfWay="edgePriority"/>
    <junction id="22" type="priority" x="459.44" y="-703.75" incLanes="14943_0 14542_0 14686_0" intLanes=":22_0_0 :22_1_0 :22_2_0 :22_3_0 :22_4_0" shape="457.45,-676.31 462.47,-681.18 458.67,-686.33 457.24,-691.26 458.01,-695.82 460.77,-699.84 465.36,-703.16 471.57,-705.64 469.65,-712.37 464.25,-711.21 459.58,-711.09 455.79,-712.12 453.03,-714.40 451.45,-718.06 451.21,-723.20 444.24,-723.76 443.23,-712.46 442.18,-703.10 441.09,-695.66 439.96,-690.16 438.79,-686.59 437.57,-684.96 435.79,-679.18 439.09,-681.72 442.52,-683.05 446.07,-683.17 449.74,-682.09 453.53,-679.80">
        <request index="0" response="00000" foes="00000" cont="0"/>
        <request index="1" response="00000" foes="00000" cont="0"/>
        <request index="2" response="10000" foes="10000" cont="0"/>
        <request index="3" response="10000" foes="10000" cont="0"/>
        <request index="4" response="00000" foes="01100" cont="0"/>
    </junction>
    <junction id="23" type="dead_end" x="433.25" y="-679.10" incLanes="17165_0" intLanes="" shape="434.55,-677.93 431.95,-680.28"/>
    <junction id="24" type="priority" x="498.10" y="-639.75" incLanes="14724_0 14724_1 14942_0 14722_0 14722_1" intLanes=":24_0_0 :24_0_1 :24_2_0 :24_3_0 :24_4_0 :24_5_0 :24_6_0 :24_6_1" shape="523.88,-645.35 513.59,-654.83 509.49,-651.00 505.51,-648.52 501.63,-647.40 497.87,-647.62 494.22,-649.19 490.67,-652.11 485.65,-647.24 488.56,-643.51 490.18,-639.67 490.49,-635.71 489.51,-631.64 487.23,-627.45 483.65,-623.15 493.70,-613.40">
        <request index="0" response="00000000" foes="00010000" cont="0"/>
        <request index="1" response="00000000" foes="00010000" cont="0"/>
        <request index="2" response="11100000" foes="11110000" cont="0"/>
        <request index="3" response="11000000" foes="11000000" cont="0"/>
        <request index="4" response="11000111" foes="11000111" cont="0"/>
        <request index="5" response="00000000" foes="00000100" cont="0"/>
        <request index="6" response="00000000" foes="00011100" cont="0"/>
        <request index="7" response="00000000" foes="00011100" cont="0"/>
    </junction>
    <junction id="6" type="dead_end" x="442.42" y="-565.62" incLanes="14719_0 14719_1" intLanes="" shape="444.93,-563.18 439.91,-568.05" rightOfWay="edgePriority"/>
    <junction id="9" type="dead_end" x="564.05" y="-703.50" incLanes="14727_0 14727_1" intLanes="" shape="561.64,-706.03 566.46,-700.96" rightOfWay="edgePriority"/>

    <connection from="14542" to="14942" fromLane="0" toLane="0" contPos="-4.00" shape="471.17,-707.34 467.58,-706.14 464.08,-704.69 461.83,-703.55 459.69,-702.22 458.67,-701.47 457.71,-700.65 456.82,-699.77 456.01,-698.80 455.31,-697.75 454.75,-696.62 454.34,-695.43 454.11,-694.19 454.06,-692.93 454.17,-691.67 454.42,-690.44 454.80,-689.24 455.28,-688.07 456.48,-685.85 457.92,-683.78 460.35,-680.88 461.21,-679.97" via=":22_3_0" dir="r" state="m"/>
    <connection from="14686" to="14942" fromLane="0" toLane="0" contPos="-4.00" shape="449.47,-723.35 449.18,-718.21 449.17,-713.06 449.49,-707.92 450.01,-703.83 450.81,-699.79 451.91,-695.82 453.34,-691.95 454.65,-689.15 456.17,-686.46 457.89,-683.90 459.82,-681.48 461.21,-679.97" via=":22_4_0" dir="s" state="M"/>
    <connection from="14722" to="14943" fromLane="0" toLane="0" contPos="-4.00" shape="484.90,-621.93 487.23,-624.53 489.29,-627.35 490.71,-629.89 491.58,-632.05 492.16,-634.30 492.38,-636.62 492.28,-638.36 491.80,-640.64 490.96,-642.81 489.82,-644.84 488.08,-647.17 486.90,-648.46" via=":24_5_0" dir="r" state="M"/>
    <connection from="14722" to="14727" fromLane="0" toLane="0" contPos="-4.00" shape="484.90,-621.93 498.33,-635.93 514.87,-653.65" via=":24_6_0" dir="s" state="M"/>
    <connection from="14722" to="14727" fromLane="1" toLane="1" contPos="-4.00" shape="487.41,-619.49 500.87,-633.53 517.45,-651.28" via=":24_6_1" dir="s" state="M"/>
    <connection from="14724" to="14719" fromLane="0" toLane="0" contPos="-4.00" shape="522.59,-646.53 505.94,-628.70 492.44,-614.62" via=":24_0_0" dir="s" state="M"/>
    <connection from="14724" to="14719" fromLane="1" toLane="1" contPos="-4.00" shape="520.02,-648.91 503.41,-631.11 489.92,-617.05" via=":24_0_1" dir="s" state="M"/>
    <connection from="14724" to="14943" fromLane="1" toLane="0" contPos="-4.00" shape="520.02,-648.91 517.51,-646.39 514.77,-644.12 512.30,-642.49 509.64,-641.18 507.39,-640.44 505.06,-640.01 502.69,-639.93 500.34,-640.21 498.05,-640.82 495.85,-641.71 493.26,-643.15 490.85,-644.87 488.17,-647.20 486.90,-648.46" via=":24_2_0" dir="l" state="m"/>
    <connection from="14942" to="14727" fromLane="0" toLane="0" contPos="-4.00" shape="489.42,-650.89 491.60,-648.89 493.54,-647.51 495.65,-646.42 497.34,-645.85 499.09,-645.52 500.87,-645.46 502.64,-645.66 504.36,-646.11 506.56,-647.01 508.62,-648.19 511.01,-649.96 513.64,-652.36 514.87,-653.65" via=":24_3_0" dir="r" state="m"/>
    <connection from="14942" to="14719" fromLane="0" toLane="1" contPos="-4.00" shape="489.42,-650.89 492.09,-647.88 494.12,-645.09 495.57,-642.60 496.72,-639.96 497.38,-637.76 497.78,-635.49 497.88,-633.19 497.67,-630.90 497.18,-628.65 496.20,-625.95 494.87,-623.39 493.28,-620.99 491.10,-618.32 489.92,-617.05" via=":24_4_0" dir="l" state="m"/>
    <connection from="14943" to="17165" fromLane="0" toLane="0" contPos="-4.00" via=":22_0_0" dir="r" state="M"/>
    <connection from="14943" to="14687" fromLane="0" toLane="0" contPos="-4.00" shape="458.69,-677.54 457.19,-679.17 455.12,-681.76 453.25,-684.52 451.61,-687.41 450.19,-690.42 448.64,-694.54 447.45,-698.77 446.59,-703.06 446.02,-707.40 445.68,-712.82 445.68,-718.24 445.98,-723.62" via=":22_1_0" dir="s" state="M"/>
    <connection from="14943" to="14543" fromLane="0" toLane="0" contPos="-4.00" shape="458.69,-677.54 457.70,-678.59 454.93,-681.88 453.24,-684.31 451.82,-686.91 451.21,-688.34 450.73,-689.81 450.39,-691.35 450.23,-692.94 450.27,-694.57 450.54,-696.18 451.03,-697.74 451.73,-699.20 452.59,-700.55 453.58,-701.77 454.66,-702.87 455.81,-703.86 457.03,-704.78 459.51,-706.34 462.11,-707.67 466.09,-709.33 470.13,-710.69" via=":22_2_0" dir="l" state="m"/>

    <connection from=":22_0" to="17165" fromLane="0" toLane="0" dir="r" state="M"/>
    <connection from=":22_1" to="14687" fromLane="0" toLane="0" dir="s" state="M"/>
    <connection from=":22_2" to="14543" fromLane="0" toLane="0" dir="l" state="M"/>
    <connection from=":22_3" to="14942" fromLane="0" toLane="0" dir="r" state="M"/>
    <connection from=":22_4" to="14942" fromLane="0" toLane="0" dir="s" state="M"/>
    <connection from=":24_0" to="14719" fromLane="0" toLane="0" dir="s" state="M"/>
    <connection from=":24_0" to="14719" fromLane="1" toLane="1" dir="s" state="M"/>
    <connection from=":24_2" to="14943" fromLane="0" toLane="0" dir="l" state="M"/>
    <connection from=":24_3" to="14727" fromLane="0" toLane="0" dir="r" state="M"/>
    <connection from=":24_4" to="14719" fromLane="0" toLane="1" dir="l" state="M"/>
    <connection from=":24_5" to="14943" fromLane="0" toLane="0" dir="r" state="M"/>
    <connection from=":24_6" to="14727" fromLane="0" toLane="0" dir="s" state="M"/>
    <connection from=":24_6" to="14727" fromLane="1" toLane="1" dir="s" state="M"/>

</net>