<routes>
	<vehicle depart="0.1" departLane="0" departPos="19.37587251097773" departSpeed="0.023174675" id="39" type="bicycle">
		<route edges="14942 14727"/>
	</vehicle>
	<vehicle depart="0.1" departLane="0" departPos="35.90596991826501" departSpeed="4.3733595" id="311" type="bicycle">
		<route edges="14943 14543"/>
	</vehicle>
	<vehicle depart="0.1" departLane="0" departPos="10.37379797500072" departSpeed="0.018258407" id="313" type="passenger">
		<route edges="14942 14727"/>
	</vehicle>
	<vehicle depart="0.1" departLane="0" departPos="15.294811967170448" departSpeed="7.1710599" id="315" type="passenger">
		<route edges=":22_2 14543"/>
	</vehicle>
	<vehicle depart="0.1" departLane="0" departPos="2.5" departSpeed="0.080394529" id="321" type="passenger">
		<route edges="14942 14727"/>
	</vehicle>
	<vehicle depart="0.1" departLane="0" departPos="4.692125691607078" departSpeed="3.2380115" id="323" type="passenger">
		<route edges=":22_2 14543"/>
	</vehicle>
	<vehicle depart="0.1" departLane="0" departPos="17.89487005992635" departSpeed="0.0029714646" id="325" type="passenger">
		<route edges="14942 14727"/>
	</vehicle>
	<vehicle depart="0.1" departLane="0" departPos="9.1089394976716" departSpeed="7.0940072" id="331" type="passenger">
		<route edges="14943 14543"/>
	</vehicle>
	<vehicle depart="0.1" departLane="0" departPos="41.51035290497163" departSpeed="0.2638618" id="334" type="passenger">
		<route edges=":22_4 14942"/>
	</vehicle>
</routes>
