<routes>
	<vehicle depart="0.1" departLane="0" departPos="8.888454898659592" departSpeed="5.6187465" id="33" type="passenger">
		<route edges="69565 69620"/>
	</vehicle>
	<vehicle depart="0.1" departLane="0" departPos="6.542662571512213" departSpeed="4.3862735" id="313" type="passenger">
		<route edges=":85_4 69815"/>
	</vehicle>
	<vehicle depart="0.1" departLane="0" departPos="11.214212620792964" departSpeed="0.80888372" id="328" type="passenger">
		<route edges=":80_4 69261"/>
	</vehicle>
	<vehicle depart="0.1" departLane="0" departPos="57.59838994649563" departSpeed="0.0" id="338" type="passenger">
		<route edges="69553 69564"/>
	</vehicle>
	<vehicle depart="0.1" departLane="0" departPos="37.03227323810246" departSpeed="13.476051" id="367" type="passenger">
		<route edges=":84_0 69305 69562"/>
	</vehicle>
	<vehicle depart="0.1" departLane="0" departPos="31.202062597765135" departSpeed="1.702309" id="34" type="motorcycle">
		<route edges=":80_5 69561 69304"/>
	</vehicle>
	<vehicle depart="0.1" departLane="0" departPos="26.158913321438146" departSpeed="0.022483645" id="325" type="motorcycle">
		<route edges=":80_5 69561"/>
	</vehicle>
	<vehicle depart="0.1" departLane="0" departPos="27.27176912147227" departSpeed="1.7031072" id="331" type="motorcycle">
		<route edges=":85_1 69815 69562"/>
	</vehicle>
	<vehicle depart="0.1" departLane="0" departPos="19.535166610749844" departSpeed="17.743079" id="359" type="motorcycle">
		<route edges=":81_1 69562 69565"/>
	</vehicle>
	<vehicle depart="0.1" departLane="0" departPos="10.187982722565682" departSpeed="0.080113582" id="30" type="truck">
		<route edges=":80_3 69565"/>
	</vehicle>
</routes>
