<routes>
	<vehicle depart="0.1" departLane="0" departPos="71.74119424119823" departSpeed="9.6449825" id="1" type="passenger">
		<route edges="50201 50213 50197"/>
	</vehicle>
	<vehicle depart="0.1" departLane="0" departPos="120.65913911462766" departSpeed="0.53351746" id="2" type="passenger">
		<route edges="50195 50211 50199"/>
	</vehicle>
	<vehicle depart="0.1" departLane="0" departPos="144.2546029264596" departSpeed="2.5906609" id="4" type="passenger">
		<route edges="50205 50217 50199"/>
	</vehicle>
	<vehicle depart="0.1" departLane="0" departPos="152.25463659461857" departSpeed="3.266189" id="5" type="passenger">
		<route edges="50205 50217 50199"/>
	</vehicle>
	<vehicle depart="0.1" departLane="0" departPos="12.029682145098992" departSpeed="3.2128615" id="7" type="passenger">
		<route edges="50201 50213 50197"/>
	</vehicle>
</routes>
