<routes>
	<vehicle depart="0.1" departLane="0" departPos="27.72180801193933" departSpeed="0.16489514" id="39" type="passenger">
		<route edges=":37_1 141382"/>
	</vehicle>
	<vehicle depart="0.1" departLane="0" departPos="14.927880482197805" departSpeed="0.0" id="317" type="passenger">
		<route edges="141403 141382"/>
	</vehicle>
	<vehicle depart="0.1" departLane="0" departPos="14.962264643383897" departSpeed="9.241712" id="331" type="passenger">
		<route edges=":37_2 141418 141400"/>
	</vehicle>
	<vehicle depart="0.1" departLane="0" departPos="29.89789531272346" departSpeed="15.348271" id="346" type="passenger">
		<route edges=":38_0 141425 141383 141418"/>
	</vehicle>
	<vehicle depart="0.1" departLane="0" departPos="7.4442953459581815" departSpeed="0.0" id="321" type="motorcycle">
		<route edges="141403 141382"/>
	</vehicle>
</routes>
