<routes>
	<vehicle depart="0.1" departLane="0" departPos="6.2" departSpeed="2.9458516" id="331" type="bus">
		<route edges="23492 23577"/>
	</vehicle>
	<vehicle depart="0.1" departLane="0" departPos="27.41111346171524" departSpeed="10.021168" id="31" type="passenger">
		<route edges=":86_4 23491 23456"/>
	</vehicle>
	<vehicle depart="0.1" departLane="0" departPos="2.5" departSpeed="6.1871864" id="318" type="passenger">
		<route edges=":86_2 23581"/>
	</vehicle>
	<vehicle depart="0.1" departLane="0" departPos="10.26134745691386" departSpeed="6.2192591" id="324" type="passenger">
		<route edges=":87_0 23492"/>
	</vehicle>
	<vehicle depart="0.1" departLane="0" departPos="50.69872861708706" departSpeed="3.765442" id="325" type="passenger">
		<route edges="23457 23488"/>
	</vehicle>
	<vehicle depart="0.1" departLane="0" departPos="29.847838484535036" departSpeed="4.9300921" id="333" type="passenger">
		<route edges=":87_5 23456"/>
	</vehicle>
	<vehicle depart="0.1" departLane="0" departPos="24.081385275723488" departSpeed="0.76518488" id="334" type="passenger">
		<route edges="23489 23492"/>
	</vehicle>
	<vehicle depart="0.1" departLane="0" departPos="28.437063512358254" departSpeed="2.1108054" id="337" type="passenger">
		<route edges=":87_0 23492"/>
	</vehicle>
	<vehicle depart="0.1" departLane="0" departPos="10.697499493357467" departSpeed="0.8716195" id="341" type="passenger">
		<route edges="23489 23492"/>
	</vehicle>
	<vehicle depart="0.1" departLane="0" departPos="6.967700169022767" departSpeed="0.88775392" id="332" type="motorcycle">
		<route edges=":87_2 23456"/>
	</vehicle>
</routes>
