<routes>
	<vehicle depart="0.1" departLane="0" departPos="2.5" departSpeed="0.0" id="31" type="passenger">
		<route edges="66507 66510"/>
	</vehicle>
	<vehicle depart="0.1" departLane="0" departPos="69.59930824746539" departSpeed="0.0" id="38" type="passenger">
		<route edges="66665 66172"/>
	</vehicle>
	<vehicle depart="0.1" departLane="0" departPos="10.947629345925776" departSpeed="0.0" id="328" type="passenger">
		<route edges="66175 66664"/>
	</vehicle>
	<vehicle depart="0.1" departLane="0" departPos="29.27897111060517" departSpeed="0.0" id="331" type="passenger">
		<route edges="66457 66454"/>
	</vehicle>
	<vehicle depart="0.1" departLane="0" departPos="36.47468095951853" departSpeed="7.9287713" id="333" type="passenger">
		<route edges=":55_3 66506 66458"/>
	</vehicle>
	<vehicle depart="0.1" departLane="0" departPos="21.778677085940906" departSpeed="1.1636916e-05" id="335" type="passenger">
		<route edges="66457 66454"/>
	</vehicle>
	<vehicle depart="0.1" departLane="0" departPos="8.13337002970875" departSpeed="7.1033995" id="348" type="passenger">
		<route edges="66668 66510 67105"/>
	</vehicle>
	<vehicle depart="0.1" departLane="0" departPos="53.397058514461094" departSpeed="8.3749437" id="353" type="passenger">
		<route edges="66173 66664"/>
	</vehicle>
	<vehicle depart="0.1" departLane="0" departPos="14.341360972769184" departSpeed="0.00017655472" id="338" type="motorcycle">
		<route edges="66457 66454"/>
	</vehicle>
	<vehicle depart="0.1" departLane="0" departPos="18.631943991671996" departSpeed="0.56784261" id="30" type="truck">
		<route edges=":55_1 66667"/>
	</vehicle>
</routes>
