<!-- generated on 2020-12-18 17:01:17.032750 by ipykernel_launcher.py v1_2_0+5214-53edc58fcd
-->
<edges>
	<edge from="1" function="normal" id="14" length="79.88748093525365" numLanes="1" priority="1" speed="36.11111111111111" spreadType="center" to="2">
		<lane allow="moped bicycle pedestrian custom1 trailer evehicle rail_urban ship private truck vip custom2 authority delivery rail_electric taxi tram army hov coach motorcycle passenger bus rail emergency" index="0" length="79.88748093525365" shape="76.19305,128.5883 37.28935,137.64415 -1.61425,146.7" speed="36.11111111111111" width="3.499068117370684"/>
	</edge>
	<edge from="3" function="normal" id="16" length="367.307774153726" numLanes="2" priority="1" speed="36.11111111111111" spreadType="center" to="4">
		<lane allow="moped bicycle pedestrian custom1 trailer evehicle rail_urban ship private truck vip custom2 authority delivery rail_electric taxi tram army hov coach motorcycle passenger bus rail emergency" index="0" length="367.307774153726" shape="204.37734999999998,330.67949999999996 202.18505,322.29005 199.6756,310.8967 195.73694999999998,291.615 193.63975,282.83045000000004 191.576,275.61755 189.4819,269.48465 187.05095,263.48535 184.4817,258.09845 181.0856,251.95274999999998 176.43509999999998,244.2086 172.29755,237.94965000000002 168.1566,232.32035000000002 164.3616,227.7138 160.3061,223.34645 156.35095,219.59935000000002 152.1544,216.12810000000002 148.14035,213.2461 143.9414,210.64315 139.56095,208.32729999999998 134.12369999999999,205.85915 128.55464999999998,203.70985 122.3862,201.7377 116.10634999999999,200.12795 109.7427,198.8625 102.8169,197.85385 95.34055000000001,197.1372 86.82005,196.71375 77.2662,196.63275 65.1671,196.9533 21.25785,199.18605 13.28105,199.88295 6.86745,200.77530000000002 1.51725,201.8428 -3.25605,203.1123 -7.92005,204.70350000000002 -12.45135,206.6418 -16.3682,208.6757 -20.1005,211.0109 -23.62585,213.66595 -26.9345,216.60255 -30.37695,220.15050000000002 -33.914649999999995,224.32080000000002 -38.14855,229.92045 -50.86335,248.09550000000002 -55.140950000000004,254.90370000000001 -56.9247,257.957" speed="36.11111111111111" width="3.4999666741270627"/>
		<lane allow="moped bicycle pedestrian custom1 trailer evehicle rail_urban ship private truck vip custom2 authority delivery rail_electric taxi tram army hov coach motorcycle passenger bus rail emergency" index="1" length="367.307774153726" shape="207.75375,329.75829999999996 205.5566,321.34235 203.0333,309.84785 199.0306,290.298 196.86855,281.34565 194.72834999999998,273.9756 192.54845,267.6918 190.01765,261.54125 187.34435000000002,256.0145 183.8594,249.75635 179.09924999999998,241.87225 174.84515,235.4846 170.57625000000002,229.73295000000002 166.64925,225.0137 162.44805,220.53715 158.34199999999998,216.68880000000001 153.9876,213.1241 149.8183,210.1594 145.45974999999999,207.4807 140.9305,205.1018 135.3361,202.57315 129.60559999999998,200.37 123.26875,198.35045 116.825,196.7027 110.30109999999999,195.40775 103.21289999999999,194.37675000000002 95.5732,193.64535 86.88595,193.21454999999997 77.16485,193.1338 64.88925,193.46175 20.4312,195.73395 12.278500000000001,196.47435000000002 5.6958,197.4249 0.1839,198.56065 -4.7511,199.9092 -9.5815,201.5938 -14.27275,203.63385 -18.34785,205.7769 -22.239449999999998,208.2365 -25.91045,211.01495 -29.352,214.07325 -32.9169,217.74235 -36.5629,222.02935 -40.8894,227.7379 -53.79535,246.1849 -58.15025,253.1166 -59.96325,256.2202" speed="36.11111111111111" width="3.4999053201479517"/>
	</edge>
	<edge from="5" function="normal" id="17" length="121.33831719166305" numLanes="1" priority="1" speed="36.11111111111111" spreadType="center" to="6">
		<lane allow="moped bicycle pedestrian custom1 trailer evehicle rail_urban ship private truck vip custom2 authority delivery rail_electric taxi tram army hov coach motorcycle passenger bus rail emergency" index="0" length="121.33831719166305" shape="-23.1846,157.66385 -30.9164,163.56795 -49.582350000000005,177.0774 -56.43485,182.4444 -61.46725,186.80055 -65.87845,191.07675 -69.66284999999999,195.2471 -72.838,199.26299999999998 -75.71674999999999,203.49625 -78.02355,207.48465 -80.0403,211.6273 -81.74425,215.90785 -83.08305,220.316 -84.05005,224.82055 -84.65934999999999,229.38745 -84.9529,234.49835000000002 -84.87245,240.1292 -84.39805,246.25459999999998 -83.55335,252.85694999999998" speed="36.11111111111111" width="3.4999454695751964"/>
	</edge>
	<edge from="7" function="normal" id="19" length="196.1636013086133" numLanes="2" priority="1" speed="36.11111111111111" spreadType="center" to="8">
		<lane allow="moped bicycle pedestrian custom1 trailer evehicle rail_urban ship private truck vip custom2 authority delivery rail_electric taxi tram army hov coach motorcycle passenger bus rail emergency" index="0" length="196.1636013086133" shape="-77.92824999999999,304.49765 -82.72085,326.6565 -85.0714,335.99005 -87.40395000000001,343.7736 -89.78295,350.49115 -92.51365,357.08040000000005 -95.60804999999999,363.50239999999997 -99.04015000000001,369.74255 -103.3001,376.6511 -108.9734,385.0097 -122.54995,403.78155000000004 -130.84845,414.57529999999997 -140.38094999999998,426.30264999999997 -153.07119999999998,441.24800000000005 -173.00414999999998,464.50379999999996 -178.4728,471.06690000000003" speed="36.11111111111111" width="3.499983835676962"/>
		<lane allow="moped bicycle pedestrian custom1 trailer evehicle rail_urban ship private truck vip custom2 authority delivery rail_electric taxi tram army hov coach motorcycle passenger bus rail emergency" index="1" length="196.1636013086133" shape="-81.3452,303.74065 -86.10565,325.7605 -88.42335,334.9809 -90.71860000000001,342.65065 -93.0564,349.25405 -95.7404,355.72425 -98.78705,362.03184999999996 -102.1712,368.1652 -106.38315,374.97344999999996 -112.01285,383.24745 -125.5086,401.8947 -133.74935,412.60114999999996 -143.22295,424.24625000000003 -155.85764999999998,439.12014999999997 -175.7218,462.29740000000004 -181.16725,468.8331" speed="36.11111111111111" width="3.499923777741456"/>
	</edge>
	<edge from="4" function="normal" id="20" length="51.21953569074062" numLanes="2" priority="1" speed="36.11111111111111" spreadType="center" to="7">
		<lane allow="moped bicycle pedestrian custom1 trailer evehicle rail_urban ship private truck vip custom2 authority delivery rail_electric taxi tram army hov coach motorcycle passenger rail emergency" index="0" length="51.21953569074062" shape="-56.9247,257.957 -62.8921,268.69984999999997 -67.58834999999999,277.80719999999997 -71.0875,285.22025 -73.8822,291.82590000000005 -75.99144999999999,297.60035000000005 -77.4513,302.51065 -77.92824999999999,304.49765" speed="36.11111111111111" width="3.4999666741270627"/>
		<lane allow="moped bicycle pedestrian custom1 trailer evehicle rail_urban ship private truck vip custom2 authority delivery rail_electric taxi tram army hov coach motorcycle passenger rail emergency" index="1" length="51.21953569074062" shape="-59.96325,256.2202 -66.0262,267.14025000000004 -70.7944,276.39965 -74.35375,283.9576 -77.20339999999999,290.71595 -79.3623,296.65364999999997 -80.85765,301.70555 -81.3452,303.74065" speed="36.11111111111111" width="3.499923777741456"/>
	</edge>
	<edge from="2" function="normal" id="21" length="24.393082748210443" numLanes="1" priority="1" speed="36.11111111111111" spreadType="center" to="5">
		<lane allow="moped bicycle pedestrian custom1 trailer evehicle rail_urban ship private truck vip custom2 authority delivery rail_electric taxi tram army hov coach motorcycle passenger bus rail emergency" index="0" length="24.393082748210443" shape="-1.61425,146.7 -5.610200000000001,147.8262 -9.4911,149.3014 -13.237400000000001,151.09145 -17.2771,153.43630000000002 -21.127000000000002,156.0817 -23.1846,157.66385" speed="36.11111111111111" width="3.499068117370684"/>
	</edge>
	<edge from="6" function="normal" id="22" length="51.137679416221744" numLanes="1" priority="1" speed="36.11111111111111" spreadType="center" to="7">
		<lane allow="moped bicycle pedestrian custom1 trailer evehicle rail_urban ship private truck vip custom2 authority delivery rail_electric taxi tram army hov coach motorcycle passenger rail emergency" index="0" length="51.137679416221744" shape="-83.55335,252.85694999999998 -81.8226,265.9104 -80.77445,276.49384999999995 -80.26605,285.08815000000004 -80.19325,292.17745 -80.47415,297.7405 -81.053,302.26030000000003 -81.3452,303.74065" speed="36.11111111111111" width="3.499923777741456"/>
	</edge>
</edges>
