<routes>
	<vehicle depart="0.1" departLane="0" departPos="26.669999999999998" departSpeed="3.0" id="1" type="bicycle">
		<route edges="8 7 6"/>
	</vehicle>
	<vehicle depart="0.1" departLane="0" departPos="3.0" departSpeed="5.0" id="2" type="passenger">
		<route edges="5"/>
	</vehicle>
	<vehicle depart="0.1" departLane="0" departPos="17.0" departSpeed="7.0" id="3" type="passenger">
		<route edges="6"/>
	</vehicle>
	<vehicle depart="0.1" departLane="0" departPos="17.0" departSpeed="0.0" id="4" type="passenger">
		<route edges="8"/>
	</vehicle>
</routes>
