<!-- generated on Tue Feb  9 22:03:29 2021 by Eclipse SUMO netconvert Version 1.8.0
<configuration xmlns:xsi="http://www.w3.org/2001/XMLSchema-instance" xsi:noNamespaceSchemaLocation="http://sumo.dlr.de/xsd/netconvertConfiguration.xsd">

    <input>
        <node-files value="./converted_scenarios/scenario-factory/ARG_Carcarana-11_4_I-1-1/ARG_Carcarana-11_4_I-1-1.nod.xml"/>
        <edge-files value="./converted_scenarios/scenario-factory/ARG_Carcarana-11_4_I-1-1/ARG_Carcarana-11_4_I-1-1.edg.xml"/>
        <connection-files value="./converted_scenarios/scenario-factory/ARG_Carcarana-11_4_I-1-1/ARG_Carcarana-11_4_I-1-1.con.xml"/>
        <tllogic-files value="./converted_scenarios/scenario-factory/ARG_Carcarana-11_4_I-1-1/ARG_Carcarana-11_4_I-1-1.tll.xml"/>
        <type-files value="/home/zen/commonroad-interactive-benchmarks/install/commonroad-map-tool/crmapconverter/sumo_map/templates/DEU.typ.xml"/>
    </input>

    <output>
        <output-file value="./converted_scenarios/scenario-factory/ARG_Carcarana-11_4_I-1-1/ARG_Carcarana-11_4_I-1-1.net.xml"/>
    </output>

    <processing>
        <geometry.remove.keep-edges.explicit value="true"/>
        <geometry.avoid-overlap value="true"/>
        <offset.disable-normalization value="true"/>
    </processing>

    <junctions>
        <no-turnarounds value="true"/>
        <junctions.internal-link-detail value="20"/>
    </junctions>

    <report>
        <aggregate-warnings value="5"/>
    </report>

    <random_number>
        <seed value="1234"/>
    </random_number>

</configuration>
--><net xmlns:xsi="http://www.w3.org/2001/XMLSchema-instance" version="1.6" junctionCornerDetail="5" junctionLinkDetail="20" limitTurnSpeed="5.50" xsi:noNamespaceSchemaLocation="http://sumo.dlr.de/xsd/net_file.xsd">

    <location netOffset="0.00,0.00" convBoundary="-294.96,-709.11,193.84,-233.22" origBoundary="-294.96,-709.11,193.84,-233.22" projParameter="!"/>

    <type id="highway.bridleway" priority="1" speed="2.78" allow="pedestrian" oneway="1" width="2.00"/>
    <type id="highway.bus_guideway" priority="1" speed="27.78" allow="bus" oneway="1"/>
    <type id="highway.cycleway" priority="1" speed="8.33" allow="bicycle" oneway="0" width="1.00"/>
    <type id="highway.footway" priority="1" speed="2.78" allow="pedestrian" oneway="1" width="2.00"/>
    <type id="highway.ford" priority="1" speed="2.78" allow="army" oneway="0"/>
    <type id="highway.living_street" priority="2" speed="2.78" disallow="tram rail_urban rail rail_electric rail_fast ship" oneway="0"/>
    <type id="highway.motorway" priority="14" speed="39.44" allow="private emergency authority army vip passenger hov taxi bus coach delivery truck trailer motorcycle evehicle custom1 custom2" oneway="1"/>
    <type id="highway.motorway_link" priority="9" speed="22.22" allow="private emergency authority army vip passenger hov taxi bus coach delivery truck trailer motorcycle evehicle custom1 custom2" oneway="1"/>
    <type id="highway.path" priority="1" speed="2.78" allow="pedestrian bicycle" oneway="0" width="2.00"/>
    <type id="highway.pedestrian" priority="1" speed="2.78" allow="pedestrian" oneway="1" width="2.00"/>
    <type id="highway.primary" priority="12" speed="27.78" disallow="pedestrian tram rail_urban rail rail_electric rail_fast ship" oneway="0"/>
    <type id="highway.primary_link" priority="7" speed="22.22" disallow="pedestrian tram rail_urban rail rail_electric rail_fast ship" oneway="0"/>
    <type id="highway.raceway" priority="15" speed="83.33" allow="vip" oneway="0"/>
    <type id="highway.residential" priority="3" speed="13.89" disallow="pedestrian tram rail_urban rail rail_electric rail_fast ship" oneway="0"/>
    <type id="highway.secondary" priority="11" speed="27.78" disallow="pedestrian tram rail_urban rail rail_electric rail_fast ship" oneway="0"/>
    <type id="highway.secondary_link" priority="6" speed="22.22" disallow="pedestrian tram rail_urban rail rail_electric rail_fast ship" oneway="0"/>
    <type id="highway.service" priority="1" speed="5.56" allow="pedestrian delivery bicycle" oneway="0"/>
    <type id="highway.stairs" priority="1" speed="1.39" allow="pedestrian" oneway="1" width="2.00"/>
    <type id="highway.step" priority="1" speed="1.39" allow="pedestrian" oneway="1" width="2.00"/>
    <type id="highway.steps" priority="1" speed="1.39" allow="pedestrian" oneway="1" width="2.00"/>
    <type id="highway.tertiary" priority="10" speed="22.22" disallow="pedestrian tram rail_urban rail rail_electric rail_fast ship" oneway="0"/>
    <type id="highway.tertiary_link" priority="5" speed="22.22" disallow="pedestrian tram rail_urban rail rail_electric rail_fast ship" oneway="0"/>
    <type id="highway.track" priority="1" speed="5.56" allow="pedestrian motorcycle moped bicycle" oneway="0"/>
    <type id="highway.trunk" priority="13" speed="27.78" disallow="pedestrian bicycle tram rail_urban rail rail_electric rail_fast ship" oneway="0"/>
    <type id="highway.trunk_link" priority="8" speed="22.22" disallow="pedestrian bicycle tram rail_urban rail rail_electric rail_fast ship" oneway="0"/>
    <type id="highway.unclassified" priority="4" speed="13.89" disallow="pedestrian tram rail_urban rail rail_electric rail_fast ship" oneway="0"/>
    <type id="highway.unsurfaced" priority="1" speed="8.33" disallow="tram rail_urban rail rail_electric rail_fast ship" oneway="0"/>
    <type id="railway.highspeed" priority="21" speed="69.44" allow="rail_fast" oneway="1"/>
    <type id="railway.light_rail" priority="19" speed="27.78" allow="rail_urban" oneway="1"/>
    <type id="railway.preserved" priority="16" speed="27.78" allow="rail" oneway="1"/>
    <type id="railway.rail" priority="20" speed="44.44" allow="rail" oneway="1"/>
    <type id="railway.subway" priority="18" speed="27.78" allow="rail_urban" oneway="1"/>
    <type id="railway.tram" priority="17" speed="13.89" allow="tram" oneway="1"/>

    <edge id=":137_0" function="internal">
        <lane id=":137_0_0" index="0" disallow="pedestrian tram rail_urban rail rail_electric rail_fast ship" speed="11.19" length="28.58" width="3.50" shape="-33.56,-373.51 -34.12,-375.74 -34.83,-377.89 -35.73,-379.92 -36.83,-381.82 -38.18,-383.53 -38.91,-384.26 -39.71,-384.95 -40.57,-385.56 -41.47,-386.09 -42.43,-386.54 -43.42,-386.91 -44.42,-387.20 -46.59,-387.59 -48.79,-387.69 -51.02,-387.57 -54.41,-387.04"/>
    </edge>
    <edge id=":137_1" function="internal">
        <lane id=":137_1_0" index="0" disallow="pedestrian tram rail_urban rail rail_electric rail_fast ship" speed="36.11" length="38.83" width="3.50" shape="-33.56,-373.51 -37.66,-392.50 -41.75,-411.47"/>
    </edge>
    <edge id=":137_2" function="internal">
        <lane id=":137_2_0" index="0" disallow="pedestrian tram rail_urban rail rail_electric rail_fast ship" speed="36.11" length="38.82" width="3.50" shape="-38.33,-412.21 -34.24,-393.24 -30.14,-374.26"/>
    </edge>
    <edge id=":137_3" function="internal">
        <lane id=":137_3_0" index="0" disallow="pedestrian tram rail_urban rail rail_electric rail_fast ship" speed="12.17" length="34.21" width="3.50" shape="-38.33,-412.21 -37.88,-409.71 -37.61,-407.16 -37.57,-404.56 -37.83,-401.94 -38.43,-399.37 -38.89,-398.07 -39.46,-396.83 -40.14,-395.65 -40.91,-394.53 -41.79,-393.48 -42.74,-392.52 -43.79,-391.62 -45.96,-390.14 -48.30,-388.95 -50.73,-388.02 -54.41,-387.04"/>
    </edge>
    <edge id=":137_4" function="internal">
        <lane id=":137_4_0" index="0" disallow="pedestrian tram rail_urban rail rail_electric rail_fast ship" speed="11.16" length="28.61" width="3.50" shape="-55.13,-390.46 -51.94,-391.31 -49.89,-392.10 -47.93,-393.10 -46.11,-394.34 -45.28,-395.06 -44.50,-395.84 -43.80,-396.68 -43.17,-397.59 -42.63,-398.55 -42.17,-399.55 -41.80,-400.58 -41.30,-402.73 -41.09,-404.92 -41.12,-407.12 -41.36,-409.30 -41.75,-411.47"/>
    </edge>
    <edge id=":137_5" function="internal">
        <lane id=":137_5_0" index="0" disallow="pedestrian tram rail_urban rail rail_electric rail_fast ship" speed="12.19" length="34.13" width="3.50" shape="-55.13,-390.46 -51.24,-391.07 -48.62,-391.21 -46.00,-391.09 -43.41,-390.63 -42.15,-390.27 -40.93,-389.81 -39.74,-389.24 -38.61,-388.58 -37.54,-387.82 -36.54,-386.97 -35.61,-386.03 -34.00,-383.97 -32.67,-381.70 -31.61,-379.30 -30.78,-376.81 -30.14,-374.26"/>
    </edge>
    <edge id=":138_0" function="internal">
        <lane id=":138_0_0" index="0" disallow="pedestrian tram rail_urban rail rail_electric rail_fast ship" speed="11.24" length="28.77" width="3.50" shape="-63.72,-513.02 -64.29,-515.26 -65.01,-517.42 -65.93,-519.46 -67.05,-521.35 -68.42,-523.07 -69.16,-523.79 -69.98,-524.48 -70.84,-525.08 -71.76,-525.61 -72.73,-526.05 -73.74,-526.42 -74.75,-526.70 -76.94,-527.07 -79.16,-527.17 -81.41,-527.04 -84.82,-526.50"/>
    </edge>
    <edge id=":138_1" function="internal">
        <lane id=":138_1_0" index="0" disallow="pedestrian tram rail_urban rail rail_electric rail_fast ship" speed="36.11" length="38.79" width="3.50" shape="-63.72,-513.02 -67.81,-531.99 -71.89,-550.94"/>
    </edge>
    <edge id=":138_2" function="internal">
        <lane id=":138_2_0" index="0" disallow="pedestrian tram rail_urban rail rail_electric rail_fast ship" speed="36.11" length="38.76" width="3.50" shape="-68.47,-551.67 -64.39,-532.73 -60.31,-513.78"/>
    </edge>
    <edge id=":138_3" function="internal">
        <lane id=":138_3_0" index="0" disallow="pedestrian tram rail_urban rail rail_electric rail_fast ship" speed="12.20" length="34.36" width="3.50" shape="-68.47,-551.67 -68.02,-549.16 -67.76,-546.59 -67.74,-543.98 -68.02,-541.34 -68.66,-538.77 -69.14,-537.46 -69.73,-536.23 -70.43,-535.05 -71.22,-533.93 -72.11,-532.89 -73.08,-531.94 -74.14,-531.05 -76.33,-529.59 -78.68,-528.41 -81.12,-527.49 -84.82,-526.50"/>
    </edge>
    <edge id=":138_4" function="internal">
        <lane id=":138_4_0" index="0" disallow="pedestrian tram rail_urban rail rail_electric rail_fast ship" speed="11.20" length="28.76" width="3.50" shape="-85.54,-529.93 -82.34,-530.78 -80.27,-531.56 -78.29,-532.55 -76.45,-533.78 -75.60,-534.49 -74.81,-535.27 -74.09,-536.11 -73.45,-537.01 -72.89,-537.96 -72.41,-538.96 -72.02,-540.00 -71.49,-542.15 -71.26,-544.35 -71.28,-546.56 -71.51,-548.76 -71.89,-550.94"/>
    </edge>
    <edge id=":138_5" function="internal">
        <lane id=":138_5_0" index="0" disallow="pedestrian tram rail_urban rail rail_electric rail_fast ship" speed="12.24" length="34.31" width="3.50" shape="-85.54,-529.93 -81.63,-530.54 -79.00,-530.69 -76.36,-530.57 -73.76,-530.14 -72.49,-529.78 -71.25,-529.33 -70.05,-528.77 -68.90,-528.11 -67.82,-527.36 -66.81,-526.51 -65.87,-525.58 -64.22,-523.52 -62.88,-521.25 -61.80,-518.84 -60.96,-516.34 -60.31,-513.78"/>
    </edge>
    <edge id=":139_0" function="internal">
        <lane id=":139_0_0" index="0" disallow="pedestrian tram rail_urban rail rail_electric rail_fast ship" speed="11.22" length="28.77" width="3.50" shape="-175.27,-415.34 -175.82,-417.60 -176.53,-419.77 -177.42,-421.83 -178.51,-423.75 -179.84,-425.51 -180.56,-426.25 -181.36,-426.96 -182.21,-427.59 -183.12,-428.14 -184.07,-428.61 -185.06,-429.00 -186.06,-429.30 -188.23,-429.71 -190.45,-429.83 -192.69,-429.72 -196.09,-429.19"/>
    </edge>
    <edge id=":139_1" function="internal">
        <lane id=":139_1_0" index="0" disallow="pedestrian tram rail_urban rail rail_electric rail_fast ship" speed="36.11" length="38.86" width="3.50" shape="-175.27,-415.34 -179.30,-434.36 -183.32,-453.36"/>
    </edge>
    <edge id=":139_2" function="internal">
        <lane id=":139_2_0" index="0" disallow="pedestrian tram rail_urban rail rail_electric rail_fast ship" speed="12.25" length="34.59" width="3.50" shape="-175.27,-415.34 -175.90,-419.30 -176.04,-421.95 -175.92,-424.61 -175.47,-427.22 -175.10,-428.50 -174.63,-429.74 -174.06,-430.94 -173.39,-432.09 -172.62,-433.17 -171.75,-434.18 -170.81,-435.11 -169.79,-435.97 -167.59,-437.45 -165.21,-438.64 -162.73,-439.58 -158.85,-440.61"/>
    </edge>
    <edge id=":139_3" function="internal">
        <lane id=":139_3_0" index="0" disallow="pedestrian tram rail_urban rail rail_electric rail_fast ship" speed="11.25" length="28.99" width="3.50" shape="-158.13,-437.18 -161.51,-436.29 -163.63,-435.49 -165.63,-434.49 -167.48,-433.24 -168.29,-432.56 -169.05,-431.80 -169.75,-430.99 -170.37,-430.13 -170.90,-429.21 -171.36,-428.24 -171.74,-427.23 -172.04,-426.22 -172.42,-424.02 -172.52,-421.78 -172.40,-419.52 -171.85,-416.07"/>
    </edge>
    <edge id=":139_4" function="internal">
        <lane id=":139_4_0" index="0" disallow="pedestrian tram rail_urban rail rail_electric rail_fast ship" speed="36.11" length="38.79" width="3.50" shape="-158.13,-437.18 -177.12,-433.18 -196.09,-429.19"/>
    </edge>
    <edge id=":139_5" function="internal">
        <lane id=":139_5_0" index="0" disallow="pedestrian tram rail_urban rail rail_electric rail_fast ship" speed="12.21" length="34.34" width="3.50" shape="-158.13,-437.18 -162.06,-436.56 -164.70,-436.41 -167.34,-436.53 -169.94,-436.97 -171.21,-437.32 -172.45,-437.78 -173.64,-438.33 -174.79,-438.99 -175.87,-439.75 -176.88,-440.60 -177.81,-441.53 -179.45,-443.60 -180.79,-445.87 -181.85,-448.29 -182.68,-450.79 -183.32,-453.36"/>
    </edge>
    <edge id=":139_6" function="internal">
        <lane id=":139_6_0" index="0" disallow="pedestrian tram rail_urban rail rail_electric rail_fast ship" speed="11.21" length="28.76" width="3.50" shape="-179.89,-454.08 -179.34,-451.85 -178.63,-449.70 -177.73,-447.65 -176.62,-445.75 -175.25,-444.04 -174.52,-443.31 -173.70,-442.63 -172.84,-442.02 -171.92,-441.50 -170.96,-441.05 -169.95,-440.68 -168.94,-440.40 -166.75,-440.03 -164.53,-439.93 -162.29,-440.06 -158.85,-440.61"/>
    </edge>
    <edge id=":139_7" function="internal">
        <lane id=":139_7_0" index="0" disallow="pedestrian tram rail_urban rail rail_electric rail_fast ship" speed="36.11" length="38.85" width="3.50" shape="-179.89,-454.08 -175.87,-435.09 -171.85,-416.07"/>
    </edge>
    <edge id=":139_8" function="internal">
        <lane id=":139_8_0" index="0" disallow="pedestrian tram rail_urban rail rail_electric rail_fast ship" speed="12.15" length="33.98" width="3.50" shape="-179.89,-454.08 -179.45,-451.59 -179.20,-449.05 -179.19,-446.47 -179.47,-443.86 -180.10,-441.32 -180.59,-440.03 -181.17,-438.81 -181.86,-437.64 -182.64,-436.54 -183.52,-435.51 -184.48,-434.57 -185.53,-433.69 -187.70,-432.24 -190.02,-431.07 -192.44,-430.16 -196.09,-429.19"/>
    </edge>
    <edge id=":139_9" function="internal">
        <lane id=":139_9_0" index="0" disallow="pedestrian tram rail_urban rail rail_electric rail_fast ship" speed="11.14" length="28.41" width="3.50" shape="-196.82,-432.61 -193.65,-433.45 -191.61,-434.22 -189.65,-435.20 -187.84,-436.42 -187.00,-437.12 -186.22,-437.89 -185.51,-438.72 -184.88,-439.61 -184.32,-440.55 -183.85,-441.53 -183.47,-442.55 -182.94,-444.67 -182.71,-446.85 -182.72,-449.03 -182.94,-451.20 -183.32,-453.36"/>
    </edge>
    <edge id=":139_10" function="internal">
        <lane id=":139_10_0" index="0" disallow="pedestrian tram rail_urban rail rail_electric rail_fast ship" speed="36.11" length="38.80" width="3.50" shape="-196.82,-432.61 -177.85,-436.61 -158.85,-440.61"/>
    </edge>
    <edge id=":139_11" function="internal">
        <lane id=":139_11_0" index="0" disallow="pedestrian tram rail_urban rail rail_electric rail_fast ship" speed="12.22" length="34.36" width="3.50" shape="-196.82,-432.61 -192.90,-433.22 -190.26,-433.35 -187.63,-433.21 -185.03,-432.73 -183.77,-432.35 -182.54,-431.86 -181.35,-431.28 -180.22,-430.59 -179.16,-429.81 -178.17,-428.94 -177.25,-427.99 -175.65,-425.89 -174.35,-423.59 -173.30,-421.17 -172.48,-418.65 -171.85,-416.07"/>
    </edge>
    <edge id=":140_0" function="internal">
        <lane id=":140_0_0" index="0" disallow="pedestrian tram rail_urban rail rail_electric rail_fast ship" speed="11.04" length="28.22" width="3.50" shape="78.79,-469.23 78.00,-472.39 77.27,-474.44 76.33,-476.39 75.15,-478.22 74.46,-479.06 73.71,-479.84 72.89,-480.56 72.01,-481.20 71.08,-481.76 70.10,-482.23 69.09,-482.62 66.98,-483.15 64.82,-483.39 62.65,-483.38 60.48,-483.16 58.37,-482.79"/>
    </edge>
    <edge id=":140_1" function="internal">
        <lane id=":140_1_0" index="0" disallow="pedestrian tram rail_urban rail rail_electric rail_fast ship" speed="36.11" length="38.75" width="3.50" shape="78.79,-469.23 72.39,-501.23 71.15,-507.22"/>
    </edge>
    <edge id=":140_2" function="internal">
        <lane id=":140_2_0" index="0" disallow="pedestrian tram rail_urban rail rail_electric rail_fast ship" speed="12.30" length="34.41" width="3.50" shape="78.79,-469.23 78.24,-473.16 78.15,-475.80 78.33,-478.44 78.85,-481.03 79.24,-482.30 79.74,-483.52 80.33,-484.71 81.03,-485.83 81.82,-486.89 82.70,-487.89 83.65,-488.80 85.76,-490.40 88.05,-491.71 90.48,-492.76 93.00,-493.58 95.59,-494.21"/>
    </edge>
    <edge id=":140_3" function="internal">
        <lane id=":140_3_0" index="0" disallow="pedestrian tram rail_urban rail rail_electric rail_fast ship" speed="11.30" length="28.90" width="3.50" shape="96.32,-490.79 94.05,-490.24 91.88,-489.53 89.81,-488.64 87.88,-487.54 86.12,-486.20 85.36,-485.48 84.65,-484.68 84.02,-483.83 83.46,-482.92 82.98,-481.97 82.58,-480.97 82.26,-479.97 81.82,-477.79 81.67,-475.57 81.75,-473.32 82.22,-469.89"/>
    </edge>
    <edge id=":140_4" function="internal">
        <lane id=":140_4_0" index="0" disallow="pedestrian tram rail_urban rail rail_electric rail_fast ship" speed="36.11" length="38.78" width="3.50" shape="96.32,-490.79 77.32,-486.79 58.37,-482.79"/>
    </edge>
    <edge id=":140_5" function="internal">
        <lane id=":140_5_0" index="0" disallow="pedestrian tram rail_urban rail rail_electric rail_fast ship" speed="12.23" length="34.51" width="3.50" shape="96.32,-490.79 92.36,-490.17 89.71,-490.03 87.06,-490.15 84.45,-490.61 83.18,-490.98 81.94,-491.45 80.74,-492.03 79.60,-492.70 78.53,-493.48 77.52,-494.34 76.59,-495.29 74.97,-497.39 73.65,-499.68 72.60,-502.12 71.77,-504.64 71.15,-507.22"/>
    </edge>
    <edge id=":140_6" function="internal">
        <lane id=":140_6_0" index="0" disallow="pedestrian tram rail_urban rail rail_electric rail_fast ship" speed="11.23" length="28.90" width="3.50" shape="74.57,-507.93 75.12,-505.69 75.83,-503.52 76.72,-501.45 77.82,-499.53 79.17,-497.78 79.90,-497.04 80.71,-496.34 81.57,-495.72 82.49,-495.18 83.45,-494.72 84.46,-494.34 85.46,-494.04 87.66,-493.66 89.89,-493.55 92.14,-493.67 95.59,-494.21"/>
    </edge>
    <edge id=":140_7" function="internal">
        <lane id=":140_7_0" index="0" disallow="pedestrian tram rail_urban rail rail_electric rail_fast ship" speed="36.11" length="38.80" width="3.50" shape="74.57,-507.93 75.82,-501.93 82.22,-469.89"/>
    </edge>
    <edge id=":140_8" function="internal">
        <lane id=":140_8_0" index="0" disallow="pedestrian tram rail_urban rail rail_electric rail_fast ship" speed="12.20" length="34.19" width="3.50" shape="74.57,-507.93 75.01,-505.43 75.26,-502.87 75.27,-500.27 75.00,-497.65 74.37,-495.09 73.90,-493.79 73.32,-492.56 72.64,-491.38 71.86,-490.26 70.98,-489.22 70.02,-488.26 68.98,-487.36 66.80,-485.89 64.46,-484.70 62.03,-483.77 58.37,-482.79"/>
    </edge>
    <edge id=":140_9" function="internal">
        <lane id=":140_9_0" index="0" disallow="pedestrian tram rail_urban rail rail_electric rail_fast ship" speed="11.19" length="28.62" width="3.50" shape="57.64,-486.22 60.81,-487.07 62.87,-487.85 64.84,-488.85 66.66,-490.09 67.50,-490.80 68.27,-491.58 68.98,-492.43 69.61,-493.33 70.16,-494.29 70.63,-495.28 71.01,-496.32 71.53,-498.46 71.76,-500.65 71.74,-502.85 71.52,-505.05 71.15,-507.22"/>
    </edge>
    <edge id=":140_10" function="internal">
        <lane id=":140_10_0" index="0" disallow="pedestrian tram rail_urban rail rail_electric rail_fast ship" speed="36.11" length="38.78" width="3.50" shape="57.64,-486.22 76.60,-490.21 95.59,-494.21"/>
    </edge>
    <edge id=":140_11" function="internal">
        <lane id=":140_11_0" index="0" disallow="pedestrian tram rail_urban rail rail_electric rail_fast ship" speed="12.06" length="33.88" width="3.50" shape="57.64,-486.22 60.10,-486.65 62.63,-486.90 65.21,-486.91 67.81,-486.62 70.34,-485.98 71.63,-485.49 72.84,-484.90 74.01,-484.21 75.10,-483.41 76.11,-482.52 77.04,-481.55 77.91,-480.49 79.32,-478.31 80.44,-475.97 81.32,-473.55 82.22,-469.89"/>
    </edge>
    <edge id=":141_0" function="internal">
        <lane id=":141_0_0" index="0" disallow="pedestrian tram rail_urban rail rail_electric rail_fast ship" speed="11.20" length="28.62" width="3.50" shape="-48.41,-442.35 -48.97,-444.57 -49.68,-446.71 -50.58,-448.75 -51.68,-450.65 -53.03,-452.37 -53.76,-453.11 -54.56,-453.79 -55.41,-454.40 -56.32,-454.94 -57.27,-455.39 -58.27,-455.77 -59.27,-456.06 -61.44,-456.45 -63.65,-456.56 -65.88,-456.44 -69.29,-455.90"/>
    </edge>
    <edge id=":141_1" function="internal">
        <lane id=":141_1_0" index="0" disallow="pedestrian tram rail_urban rail rail_electric rail_fast ship" speed="36.11" length="38.81" width="3.50" shape="-48.41,-442.35 -52.52,-461.32 -56.62,-480.28"/>
    </edge>
    <edge id=":141_2" function="internal">
        <lane id=":141_2_0" index="0" disallow="pedestrian tram rail_urban rail rail_electric rail_fast ship" speed="12.16" length="34.19" width="3.50" shape="-48.41,-442.35 -49.02,-446.11 -49.16,-448.71 -49.03,-451.33 -48.57,-453.92 -48.19,-455.24 -47.70,-456.50 -47.10,-457.73 -46.40,-458.90 -45.60,-460.00 -44.70,-461.02 -43.73,-461.96 -42.67,-462.84 -40.48,-464.28 -38.14,-465.44 -35.71,-466.35 -32.05,-467.32"/>
    </edge>
    <edge id=":141_3" function="internal">
        <lane id=":141_3_0" index="0" disallow="pedestrian tram rail_urban rail rail_electric rail_fast ship" speed="11.16" length="28.59" width="3.50" shape="-31.32,-463.90 -34.50,-463.06 -36.56,-462.28 -38.53,-461.31 -40.37,-460.10 -41.22,-459.40 -42.01,-458.63 -42.74,-457.81 -43.38,-456.92 -43.95,-455.98 -44.43,-454.99 -44.83,-453.96 -45.14,-452.90 -45.53,-450.74 -45.64,-448.54 -45.52,-446.35 -44.99,-443.09"/>
    </edge>
    <edge id=":141_4" function="internal">
        <lane id=":141_4_0" index="0" disallow="pedestrian tram rail_urban rail rail_electric rail_fast ship" speed="36.11" length="38.80" width="3.50" shape="-31.32,-463.90 -50.29,-459.90 -69.29,-455.90"/>
    </edge>
    <edge id=":141_5" function="internal">
        <lane id=":141_5_0" index="0" disallow="pedestrian tram rail_urban rail rail_electric rail_fast ship" speed="12.25" length="34.43" width="3.50" shape="-31.32,-463.90 -33.83,-463.46 -36.41,-463.21 -39.03,-463.19 -41.67,-463.48 -44.25,-464.12 -45.56,-464.61 -46.79,-465.20 -47.98,-465.89 -49.10,-466.69 -50.14,-467.57 -51.10,-468.54 -51.99,-469.60 -53.47,-471.78 -54.67,-474.13 -55.61,-476.58 -56.62,-480.28"/>
    </edge>
    <edge id=":141_6" function="internal">
        <lane id=":141_6_0" index="0" disallow="pedestrian tram rail_urban rail rail_electric rail_fast ship" speed="11.25" length="28.86" width="3.50" shape="-53.20,-481.02 -52.32,-477.81 -51.53,-475.73 -50.52,-473.75 -49.27,-471.91 -48.56,-471.07 -47.77,-470.28 -46.92,-469.56 -46.02,-468.91 -45.06,-468.35 -44.06,-467.88 -43.02,-467.49 -40.86,-466.95 -38.65,-466.71 -36.43,-466.72 -34.22,-466.94 -32.05,-467.32"/>
    </edge>
    <edge id=":141_7" function="internal">
        <lane id=":141_7_0" index="0" disallow="pedestrian tram rail_urban rail rail_electric rail_fast ship" speed="36.11" length="38.81" width="3.50" shape="-53.20,-481.02 -49.10,-462.06 -44.99,-443.09"/>
    </edge>
    <edge id=":141_8" function="internal">
        <lane id=":141_8_0" index="0" disallow="pedestrian tram rail_urban rail rail_electric rail_fast ship" speed="12.17" length="34.27" width="3.50" shape="-53.20,-481.02 -52.56,-477.12 -52.40,-474.49 -52.50,-471.86 -52.92,-469.26 -53.27,-467.99 -53.72,-466.75 -54.27,-465.55 -54.93,-464.41 -55.68,-463.33 -56.53,-462.32 -57.45,-461.39 -59.52,-459.75 -61.79,-458.42 -64.21,-457.36 -66.71,-456.53 -69.29,-455.90"/>
    </edge>
    <edge id=":141_9" function="internal">
        <lane id=":141_9_0" index="0" disallow="pedestrian tram rail_urban rail rail_electric rail_fast ship" speed="11.17" length="28.67" width="3.50" shape="-70.01,-459.32 -67.77,-459.87 -65.62,-460.58 -63.57,-461.48 -61.68,-462.59 -59.97,-463.95 -59.24,-464.68 -58.56,-465.49 -57.96,-466.35 -57.44,-467.27 -57.00,-468.23 -56.64,-469.23 -56.36,-470.24 -56.00,-472.43 -55.92,-474.64 -56.06,-476.88 -56.62,-480.28"/>
    </edge>
    <edge id=":141_10" function="internal">
        <lane id=":141_10_0" index="0" disallow="pedestrian tram rail_urban rail rail_electric rail_fast ship" speed="36.11" length="38.79" width="3.50" shape="-70.01,-459.32 -51.01,-463.33 -32.05,-467.32"/>
    </edge>
    <edge id=":141_11" function="internal">
        <lane id=":141_11_0" index="0" disallow="pedestrian tram rail_urban rail rail_electric rail_fast ship" speed="12.21" length="34.18" width="3.50" shape="-70.01,-459.32 -66.10,-459.94 -63.47,-460.08 -60.85,-459.95 -58.26,-459.49 -57.00,-459.13 -55.77,-458.66 -54.58,-458.09 -53.45,-457.43 -52.38,-456.66 -51.39,-455.81 -50.46,-454.87 -48.84,-452.80 -47.52,-450.53 -46.46,-448.13 -45.63,-445.64 -44.99,-443.09"/>
    </edge>
    <edge id=":142_0" function="internal">
        <lane id=":142_0_0" index="0" disallow="pedestrian tram rail_urban rail rail_electric rail_fast ship" speed="11.19" length="28.67" width="3.50" shape="-160.68,-346.42 -161.53,-349.62 -162.30,-351.68 -163.28,-353.66 -164.49,-355.50 -165.19,-356.36 -165.95,-357.15 -166.78,-357.88 -167.67,-358.54 -168.61,-359.11 -169.60,-359.60 -170.62,-360.00 -171.68,-360.32 -173.85,-360.72 -176.05,-360.84 -178.25,-360.73 -181.52,-360.22"/>
    </edge>
    <edge id=":142_1" function="internal">
        <lane id=":142_1_0" index="0" disallow="pedestrian tram rail_urban rail rail_electric rail_fast ship" speed="36.11" length="38.87" width="3.50" shape="-160.68,-346.42 -164.70,-365.43 -168.73,-384.45"/>
    </edge>
    <edge id=":142_2" function="internal">
        <lane id=":142_2_0" index="0" disallow="pedestrian tram rail_urban rail rail_electric rail_fast ship" speed="12.24" length="34.53" width="3.50" shape="-160.68,-346.42 -161.30,-350.36 -161.45,-353.01 -161.32,-355.66 -160.87,-358.28 -160.50,-359.56 -160.03,-360.80 -159.46,-362.00 -158.79,-363.14 -158.02,-364.22 -157.15,-365.23 -156.21,-366.17 -155.19,-367.02 -152.99,-368.50 -150.61,-369.69 -148.13,-370.63 -144.28,-371.66"/>
    </edge>
    <edge id=":142_3" function="internal">
        <lane id=":142_3_0" index="0" disallow="pedestrian tram rail_urban rail rail_electric rail_fast ship" speed="11.24" length="28.95" width="3.50" shape="-143.55,-368.23 -146.91,-367.34 -149.03,-366.54 -151.03,-365.54 -152.88,-364.29 -153.69,-363.61 -154.45,-362.86 -155.15,-362.05 -155.77,-361.18 -156.31,-360.26 -156.77,-359.29 -157.14,-358.29 -157.44,-357.27 -157.82,-355.07 -157.93,-352.84 -157.80,-350.58 -157.26,-347.15"/>
    </edge>
    <edge id=":142_4" function="internal">
        <lane id=":142_4_0" index="0" disallow="pedestrian tram rail_urban rail rail_electric rail_fast ship" speed="36.11" length="38.81" width="3.50" shape="-143.55,-368.23 -162.54,-364.23 -181.52,-360.22"/>
    </edge>
    <edge id=":142_5" function="internal">
        <lane id=":142_5_0" index="0" disallow="pedestrian tram rail_urban rail rail_electric rail_fast ship" speed="12.20" length="34.26" width="3.50" shape="-143.55,-368.23 -146.06,-367.79 -148.62,-367.54 -151.22,-367.51 -153.84,-367.79 -156.41,-368.41 -157.71,-368.88 -158.95,-369.46 -160.13,-370.14 -161.25,-370.92 -162.29,-371.80 -163.25,-372.76 -164.14,-373.81 -165.62,-375.98 -166.81,-378.32 -167.74,-380.76 -168.73,-384.45"/>
    </edge>
    <edge id=":142_6" function="internal">
        <lane id=":142_6_0" index="0" disallow="pedestrian tram rail_urban rail rail_electric rail_fast ship" speed="11.20" length="28.66" width="3.50" shape="-165.30,-385.17 -164.45,-381.98 -163.66,-379.92 -162.66,-377.95 -161.42,-376.13 -160.71,-375.29 -159.92,-374.51 -159.08,-373.80 -158.18,-373.17 -157.22,-372.62 -156.22,-372.15 -155.18,-371.77 -153.04,-371.26 -150.85,-371.03 -148.64,-371.05 -146.45,-371.27 -144.28,-371.66"/>
    </edge>
    <edge id=":142_7" function="internal">
        <lane id=":142_7_0" index="0" disallow="pedestrian tram rail_urban rail rail_electric rail_fast ship" speed="36.11" length="38.86" width="3.50" shape="-165.30,-385.17 -161.28,-366.16 -157.26,-347.15"/>
    </edge>
    <edge id=":142_8" function="internal">
        <lane id=":142_8_0" index="0" disallow="pedestrian tram rail_urban rail rail_electric rail_fast ship" speed="12.17" length="34.14" width="3.50" shape="-165.30,-385.17 -164.69,-381.28 -164.54,-378.66 -164.67,-376.04 -165.12,-373.45 -165.48,-372.19 -165.94,-370.96 -166.51,-369.77 -167.17,-368.64 -167.93,-367.57 -168.79,-366.57 -169.72,-365.65 -171.79,-364.04 -174.06,-362.72 -176.47,-361.67 -178.97,-360.85 -181.52,-360.22"/>
    </edge>
    <edge id=":142_9" function="internal">
        <lane id=":142_9_0" index="0" disallow="pedestrian tram rail_urban rail rail_electric rail_fast ship" speed="11.17" length="28.55" width="3.50" shape="-182.24,-363.65 -180.02,-364.19 -177.88,-364.90 -175.83,-365.79 -173.94,-366.88 -172.22,-368.23 -171.49,-368.95 -170.80,-369.75 -170.19,-370.60 -169.66,-371.51 -169.21,-372.46 -168.84,-373.46 -168.55,-374.45 -168.17,-376.63 -168.07,-378.83 -168.19,-381.06 -168.73,-384.45"/>
    </edge>
    <edge id=":142_10" function="internal">
        <lane id=":142_10_0" index="0" disallow="pedestrian tram rail_urban rail rail_electric rail_fast ship" speed="36.11" length="38.80" width="3.50" shape="-182.24,-363.65 -163.26,-367.65 -144.28,-371.66"/>
    </edge>
    <edge id=":142_11" function="internal">