<routes>
	<vehicle depart="0.1" departLane="0" departPos="15.231214378514114" departSpeed="1.1761255" id="338" type="bus">
		<route edges="5852 5541"/>
	</vehicle>
	<vehicle depart="0.1" departLane="0" departPos="20.709094935865327" departSpeed="2.808092" id="3114" type="bus">
		<route edges=":145_9 5853 5856"/>
	</vehicle>
	<vehicle depart="0.1" departLane="0" departPos="2.5" departSpeed="1.7825319" id="313" type="passenger">
		<route edges=":148_7 5852"/>
	</vehicle>
	<vehicle depart="0.1" departLane="0" departPos="23.94935370285018" departSpeed="0.0" id="314" type="passenger">
		<route edges="5852 5541"/>
	</vehicle>
	<vehicle depart="0.1" departLane="0" departPos="65.1543529191348" departSpeed="1.357683" id="331" type="passenger">
		<route edges="5855 5852"/>
	</vehicle>
	<vehicle depart="0.1" departLane="0" departPos="57.765489063467136" departSpeed="0.081265728" id="341" type="passenger">
		<route edges="5855 5852"/>
	</vehicle>
	<vehicle depart="0.1" departLane="0" departPos="22.452597300305946" departSpeed="0.053626509" id="344" type="passenger">
		<route edges=":148_7 5852"/>
	</vehicle>
	<vehicle depart="0.1" departLane="0" departPos="27.226848294415234" departSpeed="9.1345131" id="367" type="passenger">
		<route edges=":148_5 5856"/>
	</vehicle>
	<vehicle depart="0.1" departLane="0" departPos="23.63138761481567" departSpeed="0.045830657" id="370" type="passenger">
		<route edges=":148_9 5852"/>
	</vehicle>
	<vehicle depart="0.1" departLane="0" departPos="43.238174420336634" departSpeed="11.157911" id="3151" type="passenger">
		<route edges="5538 5541"/>
	</vehicle>
</routes>
