<routes>
	<vehicle depart="0.1" departLane="1" departPos="673.6964557486601" departSpeed="30.0" id="200" type="passenger">
		<route edges="47629"/>
	</vehicle>
	<vehicle depart="0.1" departLane="2" departPos="648.2813208110242" departSpeed="35.0" id="201" type="passenger">
		<route edges="47629"/>
	</vehicle>
	<vehicle depart="0.1" departLane="0" departPos="660.3442994642103" departSpeed="28.0" id="202" type="passenger">
		<route edges="47629"/>
	</vehicle>
	<vehicle depart="0.1" departLane="0" departPos="702.6205908070995" departSpeed="28.0" id="203" type="passenger">
		<route edges="47629"/>
	</vehicle>
	<vehicle depart="0.1" departLane="0" departPos="653.4694998165979" departSpeed="28.0" id="204" type="passenger">
		<route edges="47629"/>
	</vehicle>
</routes>
