<!-- generated on 2020-12-18 15:38:56.398622 by ipykernel_launcher.py v1_2_0+5214-53edc58fcd
-->
<edges>
	<edge from="1" function="normal" id="47629" length="2454.1554480623386" numLanes="3" priority="1" speed="36.11111111111111" spreadType="center" to="2">
		<lane allow="pedestrian rail private passenger ship delivery vip emergency bicycle rail_electric army rail_urban trailer coach bus custom2 tram taxi evehicle custom1 motorcycle authority truck hov moped" index="0" length="2454.1554480623386" shape="-673.7965999999999,-39.7508 -619.9520500000001,-34.78695 -581.2526,-31.4541 -581.1467,-31.445100000000004 -539.3290999999999,-28.12525 -539.1578,-28.1118 -506.8934,-25.4754 -506.79449999999997,-25.46765 -455.74045,-21.787799999999997 -388.23705,-17.25375 -328.4277,-13.6796 -328.33635,-13.67435 -266.41639999999995,-10.178799999999999 -213.30115,-7.653499999999999 -213.141,-7.6464 -135.96904999999998,-4.3991 -135.9445,-4.39815 -75.11935,-2.0276620000000003 -7.336449999999999,0.11499999999999999 57.9463,1.919539 58.068200000000004,1.92275 124.5243,3.4962500000000003 124.59965,3.4981 190.2002,5.16325 190.23005,5.164 247.10935,6.46335 247.16445,6.46455 309.5994,7.6486 375.86435,8.92475 439.64275,10.237449999999999 508.90685,11.69455 508.9913,11.69615 564.008,12.76575 644.5744,14.84545 644.6595500000001,14.847750000000001 714.7237,16.7186 714.78235,16.7203 792.06315,19.32325 792.1203499999999,19.32525 872.2724000000001,22.20825 872.38745,22.212899999999998 944.1157000000001,25.32545 1027.4204,29.4531 1130.66415,35.80865 1130.70365,35.81115 1233.5379,43.341 1327.9308500000002,51.5881 1328.0525,51.59965 1415.74675,60.92245 1415.8319999999999,60.932500000000005 1472.3676,67.76595 1528.9214,74.7775 1598.3245,84.08959999999999 1670.4747,94.65905000000001 1670.59105,94.67665 1737.341,105.19265 1737.4475499999999,105.20965000000001 1774.36715,111.28315" speed="36.11111111111111" width="3.4637245459187525"/>
		<lane allow="pedestrian rail private passenger ship delivery vip emergency bicycle rail_electric army rail_urban trailer coach bus custom2 tram taxi evehicle custom1 motorcycle authority truck hov moped" index="1" length="2454.1554480623386" shape="-674.1721,-35.7727 -620.3049000000001,-30.8067 -581.57915,-27.616 -539.6288,-24.27215 -507.20975,-21.62535 -456.0176,-17.86945 -455.88515,-17.8602 -388.4896,-13.3901 -328.56175,-9.787749999999999 -266.62654999999995,-6.351699999999999 -266.56205,-6.3484 -213.48405,-3.8077499999999995 -213.44774999999998,-3.8061 -136.13254999999998,-0.5438999999999999 -136.10694999999998,-0.5428499999999999 -75.26505,1.852588 -75.2325,1.8537875 -7.456049999999999,3.9209 -7.36475,3.9236500000000003 57.969,5.77885 124.43350000000001,7.3302499999999995 124.45570000000001,7.3308 190.103,9.07125 247.029,10.2724 247.0413,10.27265 309.523,11.556650000000001 375.7907,12.708549999999999 439.5562,14.0584 508.8301,15.522649999999999 563.91705,16.59905 644.4714,18.71685 714.5283,20.551000000000002 714.6088500000001,20.553449999999998 791.933,23.15495 792.00295,23.15735 872.11585,25.979599999999998 943.93685,29.180300000000003 1027.13575,33.2303 1027.2105999999999,33.234300000000005 1130.42235,39.6046 1233.24345,47.1936 1327.60155,55.35625 1327.74045,55.36995 1415.34575,64.50495000000001 1415.3991999999998,64.5108 1471.95125,71.2103 1471.9904000000001,71.2151 1528.3717000000001,78.3993 1528.4533999999999,78.4097 1597.7873,87.6717 1669.9314,98.3266 1736.7492,108.8252 1773.62795,114.82485" speed="36.11111111111111" width="3.4745564004632317"/>
		<lane allow="pedestrian rail private passenger ship delivery vip emergency bicycle rail_electric army rail_urban trailer coach bus custom2 tram taxi evehicle custom1 motorcycle authority truck hov moped" index="2" length="2454.1554480623386" shape="-674.56105,-31.9437 -620.6464000000001,-26.9852 -620.4636499999999,-26.9694 -581.9213,-23.82125 -581.8844999999999,-23.81825 -539.9273499999999,-20.5029 -539.8813,-20.49915 -507.50685,-17.8911 -456.28185,-14.1327 -456.13620000000003,-14.122599999999998 -388.74065,-9.6525 -388.7176,-9.65095 -328.78045,-6.0481 -266.78815,-2.540975 -266.73805000000004,-2.5385600000000004 -213.6085,-0.08334999999999992 -213.5863,-0.08240000000000003 -136.3166,3.21685 -136.2566,3.2193 -75.39365000000001,5.596500000000001 -75.34535,5.598050000000001 -7.56645,7.6653 -7.4739,7.6681 57.755799999999994,9.57205 57.87535,9.575 124.3437,11.07515 124.3614,11.0756 190.0124,12.8161 246.93845,14.017299999999999 246.9651,14.01785 309.44730000000004,15.301850000000002 375.68949999999995,16.52825 375.7211,16.5288 439.3621,17.85235 439.4823,17.8549 508.75300000000004,19.26785 563.8287499999999,20.4373 644.27575,22.5971 644.37255,22.59955 714.36715,24.3333 714.40815,24.334449999999997 791.78615,27.047600000000003 791.87095,27.0504 871.9852000000001,29.83065 872.06035,29.8337 943.7380499999999,32.9714 943.7588000000001,32.9724 1026.9476,37.0214 1027.0166,37.02535 1130.1495,43.34095 1232.92875,50.9266 1327.3787499999999,59.1253 1327.4238,59.1298 1414.9738,68.0905 1415.05385,68.09955 1471.5657999999999,74.73859999999999 1471.6296499999999,74.7467 1527.9307,81.93105 1527.9944999999998,81.9393 1597.30595,91.2282 1597.3467,91.23415 1669.3470000000002,101.92699999999999 1669.3933000000002,101.93405000000001 1736.1192999999998,112.30135 1736.1794,112.311 1772.99485,118.43045000000001" speed="36.11111111111111" width="3.3370167814981055"/>
	</edge>
</edges>
