<!-- generated on 2020-12-18 15:38:56.485535 by ipykernel_launcher.py v1_2_0+5214-53edc58fcd
-->
<nodes>
	<node id="1" type="from" x="-674.1765833333333" y="-35.822399999999995"/>
	<node id="2" type="to" x="1773.6633166666668" y="114.84615000000001"/>
</nodes>
