<routes>
	<vehicle depart="0.1" departLane="0" departPos="8.807269298766709" departSpeed="2.1845795" id="313" type="bicycle">
		<route edges="52550 54894"/>
	</vehicle>
	<vehicle depart="0.1" departLane="0" departPos="2.5" departSpeed="1.0721833" id="38" type="passenger">
		<route edges="54405 52108"/>
	</vehicle>
	<vehicle depart="0.1" departLane="1" departPos="17.118553353765652" departSpeed="0.28601418" id="311" type="passenger">
		<route edges="52542 52550"/>
	</vehicle>
	<vehicle depart="0.1" departLane="1" departPos="5.0924808916323885" departSpeed="0.054824139" id="314" type="passenger">
		<route edges="52542 52550"/>
	</vehicle>
	<vehicle depart="0.1" departLane="0" departPos="23.48163938995486" departSpeed="0.62374231" id="321" type="passenger">
		<route edges="54534 52542"/>
	</vehicle>
	<vehicle depart="0.1" departLane="0" departPos="7.559345117722186" departSpeed="1.1016119" id="329" type="passenger">
		<route edges="52542 52550"/>
	</vehicle>
	<vehicle depart="0.1" departLane="0" departPos="24.81837588602627" departSpeed="1.1738793" id="341" type="passenger">
		<route edges="54535 52542 52550"/>
	</vehicle>
	<vehicle depart="0.1" departLane="0" departPos="16.682009024819614" departSpeed="15.219591" id="349" type="passenger">
		<route edges=":28_5 54894 52152 54918"/>
	</vehicle>
	<vehicle depart="0.1" departLane="1" departPos="13.418354142274525" departSpeed="2.34187" id="39" type="motorcycle">
		<route edges="52162 54245"/>
	</vehicle>
	<vehicle depart="0.1" departLane="0" departPos="17.86111872440826" departSpeed="0.43228386" id="327" type="motorcycle">
		<route edges="52542 52550 54894"/>
	</vehicle>
</routes>
