<routes>
	<vehicle depart="0.1" departLane="0" departPos="38.749101406494155" departSpeed="6.1804842" id="1" type="passenger">
		<route edges="50201 50213 50197"/>
	</vehicle>
	<vehicle depart="0.1" departLane="0" departPos="118.15613317016845" departSpeed="1.239643" id="2" type="passenger">
		<route edges="50195 50211 50199"/>
	</vehicle>
	<vehicle depart="0.1" departLane="0" departPos="147.39860632604586" departSpeed="1.4355764" id="4" type="passenger">
		<route edges="50205 50207 50197"/>
	</vehicle>
	<vehicle depart="0.1" departLane="0" departPos="155.39876730952767" departSpeed="3.0374403" id="5" type="passenger">
		<route edges="50205 50217 50199"/>
	</vehicle>
	<vehicle depart="0.1" departLane="0" departPos="30.748134274816646" departSpeed="2.1974454" id="7" type="passenger">
		<route edges="50201 50213 50197"/>
	</vehicle>
</routes>
