<routes>
	<vehicle depart="0.1" departLane="5" departPos="136.9895016535533" departSpeed="7.62" id="216" type="passenger">
		<route edges="8"/>
	</vehicle>
	<vehicle depart="0.1" departLane="5" departPos="117.10339033648009" departSpeed="7.8181" id="220" type="passenger">
		<route edges="8"/>
	</vehicle>
	<vehicle depart="0.1" departLane="3" departPos="116.19080044786743" departSpeed="14.9687" id="221" type="passenger">
		<route edges="8"/>
	</vehicle>
	<vehicle depart="0.1" departLane="5" departPos="95.95124412276688" departSpeed="9.1227" id="223" type="passenger">
		<route edges="8"/>
	</vehicle>
	<vehicle depart="0.1" departLane="2" departPos="127.60969606189681" departSpeed="16.2245" id="224" type="passenger">
		<route edges="8"/>
	</vehicle>
	<vehicle depart="0.1" departLane="4" departPos="105.22865294483103" departSpeed="10.668" id="225" type="passenger">
		<route edges="8"/>
	</vehicle>
	<vehicle depart="0.1" departLane="1" departPos="107.74306704593766" departSpeed="15.0266" id="226" type="passenger">
		<route edges="8"/>
	</vehicle>
	<vehicle depart="0.1" departLane="4" departPos="91.50514030143654" departSpeed="9.4945" id="227" type="passenger">
		<route edges="8"/>
	</vehicle>
	<vehicle depart="0.1" departLane="2" departPos="95.72930979482011" departSpeed="15.24" id="228" type="passenger">
		<route edges="8"/>
	</vehicle>
	<vehicle depart="0.1" departLane="3" departPos="85.5335271554581" departSpeed="15.2034" id="230" type="passenger">
		<route edges="8"/>
	</vehicle>
	<vehicle depart="0.1" departLane="1" departPos="90.06912424957865" departSpeed="14.984" id="231" type="passenger">
		<route edges="8"/>
	</vehicle>
	<vehicle depart="0.1" departLane="5" departPos="78.8224657652415" departSpeed="9.906" id="232" type="passenger">
		<route edges="8"/>
	</vehicle>
	<vehicle depart="0.1" departLane="1" departPos="69.49494641323223" departSpeed="15.1089" id="233" type="passenger">
		<route edges="8"/>
	</vehicle>
	<vehicle depart="0.1" departLane="4" departPos="65.85977036938725" departSpeed="11.2227" id="234" type="passenger">
		<route edges="8"/>
	</vehicle>
	<vehicle depart="0.1" departLane="3" departPos="60.229272706306666" departSpeed="13.9446" id="237" type="passenger">
		<route edges="8"/>
	</vehicle>
	<vehicle depart="0.1" departLane="5" departPos="64.82603737987053" departSpeed="11.3081" id="239" type="passenger">
		<route edges="8"/>
	</vehicle>
	<vehicle depart="0.1" departLane="5" departPos="45.230358629149755" departSpeed="13.2984" id="240" type="passenger">
		<route edges="8"/>
	</vehicle>
	<vehicle depart="0.1" departLane="5" departPos="32.023340775317095" departSpeed="13.1064" id="241" type="passenger">
		<route edges="8"/>
	</vehicle>
	<vehicle depart="0.1" departLane="4" departPos="19.78052636083811" departSpeed="15.2491" id="242" type="passenger">
		<route edges="8"/>
	</vehicle>
	<vehicle depart="0.1" departLane="2" departPos="11.071277075271597" departSpeed="16.3739" id="245" type="passenger">
		<route edges="8"/>
	</vehicle>
	<vehicle depart="0.1" departLane="1" departPos="31.70316697460441" departSpeed="13.716" id="246" type="passenger">
		<route edges="8"/>
	</vehicle>
	<vehicle depart="0.1" departLane="3" departPos="22.426459360268343" departSpeed="11.9543" id="247" type="passenger">
		<route edges="8"/>
	</vehicle>
	<vehicle depart="0.1" departLane="1" departPos="10.389127464078626" departSpeed="15.2004" id="249" type="passenger">
		<route edges="8"/>
	</vehicle>
	<vehicle depart="0.1" departLane="4" departPos="6.874961862359038" departSpeed="13.5484" id="250" type="passenger">
		<route edges="8"/>
	</vehicle>
	<vehicle depart="0.1" departLane="0" departPos="58.97659852835039" departSpeed="14.9504" id="252" type="passenger">
		<route edges="12 8"/>
	</vehicle>
	<vehicle depart="0.1" departLane="1" departPos="52.224947118415685" departSpeed="13.1856" id="254" type="passenger">
		<route edges="12 8"/>
	</vehicle>
	<vehicle depart="0.1" departLane="2" departPos="58.23442243434614" departSpeed="13.1704" id="255" type="passenger">
		<route edges="12 8"/>
	</vehicle>
	<vehicle depart="0.1" departLane="2" departPos="41.069318942483584" departSpeed="12.131" id="257" type="passenger">
		<route edges="12 8"/>
	</vehicle>
	<vehicle depart="0.1" departLane="4" departPos="74.2858988676986" departSpeed="12.9449" id="271" type="passenger">
		<route edges="12 8"/>
	</vehicle>
	<vehicle depart="0.1" departLane="3" departPos="56.70022429093612" departSpeed="12.4816" id="272" type="passenger">
		<route edges="12 8"/>
	</vehicle>
	<vehicle depart="0.1" departLane="1" departPos="26.629522571164415" departSpeed="14.7157" id="277" type="passenger">
		<route edges="12 8"/>
	</vehicle>
	<vehicle depart="0.1" departLane="0" departPos="10.450668683427848" departSpeed="15.3132" id="278" type="passenger">
		<route edges="12 8"/>
	</vehicle>
	<vehicle depart="0.1" departLane="4" departPos="51.09052610056508" departSpeed="12.1798" id="280" type="passenger">
		<route edges="12 8"/>
	</vehicle>
	<vehicle depart="0.1" departLane="3" departPos="38.08716886790558" departSpeed="13.7831" id="281" type="passenger">
		<route edges="12 8"/>
	</vehicle>
	<vehicle depart="0.1" departLane="4" departPos="39.33675307953506" departSpeed="12.1371" id="282" type="passenger">
		<route edges="12 8"/>
	</vehicle>
	<vehicle depart="0.1" departLane="1" departPos="0" departSpeed="12.0731" id="285" type="passenger">
		<route edges="12 8"/>
	</vehicle>
	<vehicle depart="0.1" departLane="3" departPos="9.272952873880612" departSpeed="11.9786" id="292" type="passenger">
		<route edges="12 8"/>
	</vehicle>
	<vehicle depart="0.1" departLane="2" departPos="0" departSpeed="11.6799" id="295" type="passenger">
		<route edges="12 8"/>
	</vehicle>
	<vehicle depart="0.1" departLane="4" departPos="11.768301442012447" departSpeed="12.2743" id="298" type="passenger">
		<route edges="12 8"/>
	</vehicle>
</routes>
