<routes>
	<vehicle depart="0.1" departLane="0" departPos="68.30913003033956" departSpeed="1.3413202" id="355" type="bus">
		<route edges="39094 39121"/>
	</vehicle>
	<vehicle depart="0.1" departLane="0" departPos="17.257756083975426" departSpeed="3.7552406" id="313" type="passenger">
		<route edges="39415 39122"/>
	</vehicle>
	<vehicle depart="0.1" departLane="0" departPos="17.30873569011797" departSpeed="2.5932515" id="335" type="passenger">
		<route edges=":62_0 39121 39416"/>
	</vehicle>
	<vehicle depart="0.1" departLane="0" departPos="2.5" departSpeed="6.3944786" id="344" type="passenger">
		<route edges=":62_5 39093"/>
	</vehicle>
	<vehicle depart="0.1" departLane="0" departPos="8.081668918350772" departSpeed="2.0879588" id="346" type="passenger">
		<route edges="39415 39118"/>
	</vehicle>
	<vehicle depart="0.1" departLane="0" departPos="20.0341976951473" departSpeed="0.61282457" id="352" type="passenger">
		<route edges=":66_5 39415"/>
	</vehicle>
	<vehicle depart="0.1" departLane="0" departPos="24.588974042282146" departSpeed="11.320554" id="358" type="passenger">
		<route edges=":63_4 39416 39244"/>
	</vehicle>
	<vehicle depart="0.1" departLane="0" departPos="31.072379926028887" departSpeed="5.2494568" id="330" type="motorcycle">
		<route edges=":62_3 39121 39416"/>
	</vehicle>
</routes>
