<!-- generated on Tue Feb  9 22:00:29 2021 by Eclipse SUMO netconvert Version 1.8.0
<configuration xmlns:xsi="http://www.w3.org/2001/XMLSchema-instance" xsi:noNamespaceSchemaLocation="http://sumo.dlr.de/xsd/netconvertConfiguration.xsd">

    <input>
        <node-files value="./converted_scenarios/scenario-factory/DEU_Ibbenbueren-6_2_I-1-1/DEU_Ibbenbueren-6_2_I-1-1.nod.xml"/>
        <edge-files value="./converted_scenarios/scenario-factory/DEU_Ibbenbueren-6_2_I-1-1/DEU_Ibbenbueren-6_2_I-1-1.edg.xml"/>
        <connection-files value="./converted_scenarios/scenario-factory/DEU_Ibbenbueren-6_2_I-1-1/DEU_Ibbenbueren-6_2_I-1-1.con.xml"/>
        <tllogic-files value="./converted_scenarios/scenario-factory/DEU_Ibbenbueren-6_2_I-1-1/DEU_Ibbenbueren-6_2_I-1-1.tll.xml"/>
        <type-files value="/home/zen/commonroad-interactive-benchmarks/install/commonroad-map-tool/crmapconverter/sumo_map/templates/DEU.typ.xml"/>
    </input>

    <output>
        <output-file value="./converted_scenarios/scenario-factory/DEU_Ibbenbueren-6_2_I-1-1/DEU_Ibbenbueren-6_2_I-1-1.net.xml"/>
    </output>

    <processing>
        <geometry.remove.keep-edges.explicit value="true"/>
        <geometry.avoid-overlap value="true"/>
        <offset.disable-normalization value="true"/>
    </processing>

    <junctions>
        <no-turnarounds value="true"/>
        <junctions.internal-link-detail value="20"/>
    </junctions>

    <report>
        <aggregate-warnings value="5"/>
    </report>

    <random_number>
        <seed value="1234"/>
    </random_number>

</configuration>
--><net xmlns:xsi="http://www.w3.org/2001/XMLSchema-instance" version="1.6" junctionCornerDetail="5" junctionLinkDetail="20" limitTurnSpeed="5.50" xsi:noNamespaceSchemaLocation="http://sumo.dlr.de/xsd/net_file.xsd">

    <location netOffset="0.00,0.00" convBoundary="-7.18,-604.51,344.96,-421.34" origBoundary="-7.18,-604.51,344.96,-421.34" projParameter="!"/>

    <type id="highway.bridleway" priority="1" speed="2.78" allow="pedestrian" oneway="1" width="2.00"/>
    <type id="highway.bus_guideway" priority="1" speed="27.78" allow="bus" oneway="1"/>
    <type id="highway.cycleway" priority="1" speed="8.33" allow="bicycle" oneway="0" width="1.00"/>
    <type id="highway.footway" priority="1" speed="2.78" allow="pedestrian" oneway="1" width="2.00"/>
    <type id="highway.ford" priority="1" speed="2.78" allow="army" oneway="0"/>
    <type id="highway.living_street" priority="2" speed="2.78" disallow="tram rail_urban rail rail_electric rail_fast ship" oneway="0"/>
    <type id="highway.motorway" priority="14" speed="39.44" allow="private emergency authority army vip passenger hov taxi bus coach delivery truck trailer motorcycle evehicle custom1 custom2" oneway="1"/>
    <type id="highway.motorway_link" priority="9" speed="22.22" allow="private emergency authority army vip passenger hov taxi bus coach delivery truck trailer motorcycle evehicle custom1 custom2" oneway="1"/>
    <type id="highway.path" priority="1" speed="2.78" allow="pedestrian bicycle" oneway="0" width="2.00"/>
    <type id="highway.pedestrian" priority="1" speed="2.78" allow="pedestrian" oneway="1" width="2.00"/>
    <type id="highway.primary" priority="12" speed="27.78" disallow="pedestrian tram rail_urban rail rail_electric rail_fast ship" oneway="0"/>
    <type id="highway.primary_link" priority="7" speed="22.22" disallow="pedestrian tram rail_urban rail rail_electric rail_fast ship" oneway="0"/>
    <type id="highway.raceway" priority="15" speed="83.33" allow="vip" oneway="0"/>
    <type id="highway.residential" priority="3" speed="13.89" disallow="pedestrian tram rail_urban rail rail_electric rail_fast ship" oneway="0"/>
    <type id="highway.secondary" priority="11" speed="27.78" disallow="pedestrian tram rail_urban rail rail_electric rail_fast ship" oneway="0"/>
    <type id="highway.secondary_link" priority="6" speed="22.22" disallow="pedestrian tram rail_urban rail rail_electric rail_fast ship" oneway="0"/>
    <type id="highway.service" priority="1" speed="5.56" allow="pedestrian delivery bicycle" oneway="0"/>
    <type id="highway.stairs" priority="1" speed="1.39" allow="pedestrian" oneway="1" width="2.00"/>
    <type id="highway.step" priority="1" speed="1.39" allow="pedestrian" oneway="1" width="2.00"/>
    <type id="highway.steps" priority="1" speed="1.39" allow="pedestrian" oneway="1" width="2.00"/>
    <type id="highway.tertiary" priority="10" speed="22.22" disallow="pedestrian tram rail_urban rail rail_electric rail_fast ship" oneway="0"/>
    <type id="highway.tertiary_link" priority="5" speed="22.22" disallow="pedestrian tram rail_urban rail rail_electric rail_fast ship" oneway="0"/>
    <type id="highway.track" priority="1" speed="5.56" allow="pedestrian motorcycle moped bicycle" oneway="0"/>
    <type id="highway.trunk" priority="13" speed="27.78" disallow="pedestrian bicycle tram rail_urban rail rail_electric rail_fast ship" oneway="0"/>
    <type id="highway.trunk_link" priority="8" speed="22.22" disallow="pedestrian bicycle tram rail_urban rail rail_electric rail_fast ship" oneway="0"/>
    <type id="highway.unclassified" priority="4" speed="13.89" disallow="pedestrian tram rail_urban rail rail_electric rail_fast ship" oneway="0"/>
    <type id="highway.unsurfaced" priority="1" speed="8.33" disallow="tram rail_urban rail rail_electric rail_fast ship" oneway="0"/>
    <type id="railway.highspeed" priority="21" speed="69.44" allow="rail_fast" oneway="1"/>
    <type id="railway.light_rail" priority="19" speed="27.78" allow="rail_urban" oneway="1"/>
    <type id="railway.preserved" priority="16" speed="27.78" allow="rail" oneway="1"/>
    <type id="railway.rail" priority="20" speed="44.44" allow="rail" oneway="1"/>
    <type id="railway.subway" priority="18" speed="27.78" allow="rail_urban" oneway="1"/>
    <type id="railway.tram" priority="17" speed="13.89" allow="tram" oneway="1"/>

    <edge id=":61_0" function="internal">
        <lane id=":61_0_0" index="0" disallow="pedestrian tram rail_urban rail rail_electric rail_fast ship" speed="11.23" length="28.94" width="3.50" shape="238.17,-539.33 237.29,-541.47 236.27,-543.51 235.08,-545.43 233.70,-547.16 232.10,-548.69 231.26,-549.31 230.36,-549.88 229.41,-550.37 228.43,-550.76 227.41,-551.08 226.36,-551.30 225.31,-551.45 223.08,-551.50 220.86,-551.27 218.65,-550.82 215.31,-549.76"/>
    </edge>
    <edge id=":61_1" function="internal">
        <lane id=":61_1_0" index="0" disallow="pedestrian tram rail_urban rail rail_electric rail_fast ship" speed="12.28" length="34.12" width="3.50" shape="238.17,-539.33 237.03,-542.95 236.49,-545.49 236.21,-548.08 236.24,-550.72 236.63,-553.34 236.99,-554.67 237.46,-555.95 238.04,-557.18 238.72,-558.36 239.51,-559.49 241.26,-561.47 243.27,-563.18 245.44,-564.63 247.70,-565.85 250.02,-566.87"/>
    </edge>
    <edge id=":61_2" function="internal">
        <lane id=":61_2_0" index="0" disallow="pedestrian tram rail_urban rail rail_electric rail_fast ship" speed="11.28" length="28.65" width="3.50" shape="251.33,-563.62 249.31,-562.74 247.37,-561.70 245.54,-560.47 243.87,-559.04 242.41,-557.39 241.78,-556.48 241.23,-555.52 240.77,-554.52 240.39,-553.49 240.10,-552.43 239.77,-550.25 239.76,-548.04 240.00,-545.85 240.45,-543.70 241.45,-540.54"/>
    </edge>
    <edge id=":61_3" function="internal">
        <lane id=":61_3_0" index="0" disallow="pedestrian tram rail_urban rail rail_electric rail_fast ship" speed="36.11" length="38.59" width="3.50" shape="251.33,-563.62 240.66,-559.43 215.31,-549.76"/>
    </edge>
    <edge id=":61_4" function="internal">
        <lane id=":61_4_0" index="0" disallow="pedestrian tram rail_urban rail rail_electric rail_fast ship" speed="36.11" length="38.50" width="3.50" shape="214.09,-553.04 239.39,-562.69 250.02,-566.87"/>
    </edge>
    <edge id=":61_5" function="internal">
        <lane id=":61_5_0" index="0" disallow="pedestrian tram rail_urban rail rail_electric rail_fast ship" speed="12.23" length="34.53" width="3.50" shape="214.09,-553.04 217.91,-554.25 220.51,-554.78 223.15,-555.05 225.80,-554.99 227.12,-554.81 228.42,-554.53 229.68,-554.14 230.92,-553.65 232.10,-553.04 233.22,-552.33 234.28,-551.53 236.20,-549.70 237.85,-547.62 239.25,-545.37 240.44,-543.00 241.45,-540.54"/>
    </edge>
    <edge id=":62_0" function="internal">
        <lane id=":62_0_0" index="0" disallow="pedestrian tram rail_urban rail rail_electric rail_fast ship" speed="10.18" length="23.29" width="3.50" shape="169.78,-513.79 168.43,-516.94 166.85,-519.96 165.66,-521.83 164.33,-523.55 162.81,-525.07 162.02,-525.69 161.18,-526.23 160.30,-526.68 159.39,-527.02 158.46,-527.24 157.50,-527.35 156.54,-527.34 155.55,-527.21 154.57,-526.98 153.56,-526.64"/>
    </edge>
    <edge id=":62_1" function="internal">
        <lane id=":62_1_0" index="0" disallow="pedestrian tram rail_urban rail rail_electric rail_fast ship" speed="12.09" length="34.06" width="3.50" shape="169.78,-513.79 168.94,-516.18 168.27,-518.64 167.82,-521.19 167.66,-523.81 167.85,-526.44 168.11,-527.79 168.48,-529.10 168.96,-530.37 169.56,-531.59 170.26,-532.76 171.06,-533.85 171.96,-534.89 173.88,-536.67 176.01,-538.19 178.26,-539.46 181.71,-540.96"/>
    </edge>
    <edge id=":62_2" function="internal">
        <lane id=":62_2_0" index="0" disallow="pedestrian tram rail_urban rail rail_electric rail_fast ship" speed="11.09" length="28.46" width="3.50" shape="182.97,-537.70 179.96,-536.39 178.05,-535.31 176.27,-534.04 174.67,-532.55 173.95,-531.72 173.31,-530.84 172.74,-529.90 172.26,-528.91 171.88,-527.89 171.58,-526.84 171.37,-525.76 171.21,-523.58 171.35,-521.40 171.73,-519.24 172.31,-517.13 173.04,-515.06"/>
    </edge>
    <edge id=":62_3" function="internal">
        <lane id=":62_3_0" index="0" disallow="pedestrian tram rail_urban rail rail_electric rail_fast ship" speed="36.11" length="31.42" width="3.50" shape="182.97,-537.70 168.28,-532.17 153.56,-526.64"/>
    </edge>
    <edge id=":62_4" function="internal">
        <lane id=":62_4_0" index="0" disallow="pedestrian tram rail_urban rail rail_electric rail_fast ship" speed="36.11" length="31.40" width="3.50" shape="152.32,-529.92 167.04,-535.45 181.71,-540.96"/>
    </edge>
    <edge id=":62_5" function="internal">
        <lane id=":62_5_0" index="0" disallow="pedestrian tram rail_urban rail rail_electric rail_fast ship" speed="11.26" length="28.82" width="3.50" shape="152.32,-529.92 153.58,-530.34 154.85,-530.65 156.15,-530.84 157.45,-530.90 158.76,-530.80 160.04,-530.55 161.29,-530.15 162.48,-529.61 163.60,-528.94 164.66,-528.16 166.56,-526.36 168.20,-524.33 169.64,-522.14 171.49,-518.67 173.04,-515.06"/>
    </edge>
    <edge id=":63_0" function="internal">
        <lane id=":63_0_0" index="0" disallow="pedestrian tram rail_urban rail rail_electric rail_fast ship" speed="36.11" length="31.36" width="3.50" shape="153.34,-526.56 138.68,-521.00 124.01,-515.45"/>
    </edge>
    <edge id=":63_1" function="internal">
        <lane id=":63_1_0" index="0" disallow="pedestrian tram rail_urban rail rail_electric rail_fast ship" speed="12.01" length="29.23" width="3.50" shape="153.34,-526.56 152.04,-526.15 150.68,-525.91 149.28,-525.84 147.90,-525.95 146.55,-526.24 145.27,-526.67 144.06,-527.21 142.92,-527.86 141.83,-528.59 139.89,-530.17 138.13,-531.93 135.80,-534.72 133.71,-537.68 131.22,-541.75"/>
    </edge>
    <edge id=":63_2" function="internal">
        <lane id=":63_2_0" index="0" disallow="pedestrian tram rail_urban rail rail_electric rail_fast ship" speed="10.98" length="24.29" width="3.50" shape="134.26,-543.48 136.46,-539.86 138.26,-537.26 140.25,-534.79 141.70,-533.25 143.28,-531.85 144.13,-531.22 145.02,-530.66 145.95,-530.17 146.93,-529.78 147.95,-529.50 149.00,-529.36 150.05,-529.36 151.09,-529.53 152.10,-529.83"/>
    </edge>
    <edge id=":63_3" function="internal">
        <lane id=":63_3_0" index="0" disallow="pedestrian tram rail_urban rail rail_electric rail_fast ship" speed="11.78" length="35.67" width="3.50" shape="134.26,-543.48 136.12,-539.80 137.10,-537.24 137.81,-534.59 138.03,-533.23 138.15,-531.87 138.15,-530.49 138.01,-529.13 137.75,-527.78 137.34,-526.47 136.79,-525.22 136.12,-524.02 135.33,-522.90 134.44,-521.86 133.47,-520.89 131.32,-519.18 129.00,-517.73 126.54,-516.50 124.01,-515.45"/>
    </edge>
    <edge id=":63_4" function="internal">
        <lane id=":63_4_0" index="0" disallow="pedestrian tram rail_urban rail rail_electric rail_fast ship" speed="10.75" length="29.50" width="3.50" shape="122.75,-518.71 124.97,-519.63 127.08,-520.69 129.05,-521.91 130.84,-523.35 131.61,-524.11 132.32,-524.94 132.95,-525.83 133.48,-526.76 133.90,-527.73 134.22,-528.75 134.43,-529.80 134.53,-530.87 134.53,-531.96 134.44,-533.06 134.26,-534.15 133.67,-536.39 132.84,-538.55 131.22,-541.75"/>
    </edge>
    <edge id=":63_5" function="internal">
        <lane id=":63_5_0" index="0" disallow="pedestrian tram rail_urban rail rail_electric rail_fast ship" speed="36.11" length="31.39" width="3.50" shape="122.75,-518.71 137.44,-524.28 152.10,-529.83"/>
    </edge>
    <edge id=":64_0" function="internal">
        <lane id=":64_0_0" index="0" disallow="pedestrian tram rail_urban rail rail_electric rail_fast ship" speed="11.06" length="28.93" width="3.50" shape="298.97,-563.27 297.71,-566.35 296.66,-568.31 295.41,-570.16 293.93,-571.82 293.10,-572.56 292.21,-573.23 291.27,-573.82 290.27,-574.32 289.23,-574.72 288.16,-575.02 287.07,-575.24 285.96,-575.36 283.74,-575.35 281.53,-575.07 279.36,-574.57 276.20,-573.50"/>
    </edge>
    <edge id=":64_1" function="internal">
        <lane id=":64_1_0" index="0" disallow="pedestrian tram rail_urban rail rail_electric rail_fast ship" speed="12.45" length="34.31" width="3.50" shape="298.97,-563.27 298.58,-564.45 297.66,-568.00 297.27,-570.49 297.12,-573.02 297.27,-575.59 297.77,-578.13 298.64,-580.57 299.24,-581.77 299.93,-582.92 301.51,-584.96 303.35,-586.76 305.38,-588.30 307.54,-589.61 310.87,-591.18"/>
    </edge>
    <edge id=":64_2" function="internal">
        <lane id=":64_2_0" index="0" disallow="pedestrian tram rail_urban rail rail_electric rail_fast ship" speed="11.46" length="28.94" width="3.50" shape="312.22,-587.95 309.31,-586.58 307.47,-585.47 305.76,-584.16 304.23,-582.66 302.92,-580.96 302.38,-580.04 301.90,-579.08 301.19,-577.05 300.78,-574.95 300.66,-572.80 300.79,-570.66 301.13,-568.54 301.94,-565.42 302.26,-564.44"/>
    </edge>
    <edge id=":64_3" function="internal">
        <lane id=":64_3_0" index="0" disallow="pedestrian tram rail_urban rail rail_electric rail_fast ship" speed="36.11" length="38.81" width="3.50" shape="312.22,-587.95 294.21,-580.72 276.20,-573.50"/>
    </edge>
    <edge id=":64_4" function="internal">
        <lane id=":64_4_0" index="0" disallow="pedestrian tram rail_urban rail rail_electric rail_fast ship" speed="36.11" length="38.75" width="3.50" shape="274.91,-576.75 292.90,-583.97 310.87,-591.18"/>
    </edge>
    <edge id=":64_5" function="internal">
        <lane id=":64_5_0" index="0" disallow="pedestrian tram rail_urban rail rail_electric rail_fast ship" speed="12.07" length="34.65" width="3.50" shape="274.91,-576.75 278.56,-577.98 281.12,-578.58 283.75,-578.91 286.40,-578.91 287.79,-578.76 289.14,-578.50 290.47,-578.12 291.76,-577.61 293.00,-576.99 294.18,-576.26 295.28,-575.43 296.32,-574.50 298.08,-572.50 299.58,-570.30 300.82,-567.98 302.26,-564.44"/>
    </edge>
    <edge id=":65_0" function="internal">
        <lane id=":65_0_0" index="0" disallow="pedestrian tram rail_urban rail rail_electric rail_fast ship" speed="11.93" length="29.68" width="3.50" shape="77.40,-476.97 75.36,-479.69 73.16,-482.13 71.54,-483.61 69.80,-484.94 67.92,-486.07 65.91,-486.94 63.80,-487.52 61.62,-487.76 59.43,-487.67 57.28,-487.27 55.20,-486.60 53.19,-485.71 52.23,-485.20"/>
    </edge>
    <edge id=":65_1" function="internal">
        <lane id=":65_1_0" index="0" disallow="pedestrian tram rail_urban rail rail_electric rail_fast ship" speed="36.11" length="40.41" width="3.50" shape="77.40,-476.97 76.73,-477.95 73.92,-482.37 70.86,-487.85 64.37,-500.77 61.02,-507.09 57.87,-512.31"/>
    </edge>
    <edge id=":65_2" function="internal">
        <lane id=":65_2_0" index="0" disallow="pedestrian tram rail_urban rail rail_electric rail_fast ship" speed="11.49" length="36.80" width="3.50" shape="77.40,-476.97 75.80,-479.43 74.46,-481.92 73.38,-484.52 72.96,-485.87 72.65,-487.25 72.47,-488.65 72.42,-490.06 72.52,-491.47 72.79,-492.85 73.22,-494.20 73.81,-495.48 74.54,-496.69 75.39,-497.81 76.35,-498.85 77.38,-499.81 79.63,-501.51 82.06,-502.96 85.89,-504.75 87.20,-505.27"/>
    </edge>
    <edge id=":65_3" function="internal">
        <lane id=":65_3_0" index="0" disallow="pedestrian tram rail_urban rail rail_electric rail_fast ship" speed="10.44" length="30.12" width="3.50" shape="88.44,-502.00 87.32,-501.56 83.97,-499.99 81.92,-498.78 80.02,-497.35 79.19,-496.59 78.42,-495.75 77.75,-494.87 77.18,-493.94 76.72,-492.97 76.38,-491.95 76.17,-490.90 76.09,-489.82 76.12,-488.72 76.26,-487.62 76.51,-486.51 76.84,-485.43 77.75,-483.22 78.89,-481.10 80.20,-479.07"/>
    </edge>
    <edge id=":65_4" function="internal">
        <lane id=":65_4_0" index="0" disallow="pedestrian tram rail_urban rail rail_electric rail_fast ship" speed="36.11" length="39.95" width="3.50" shape="88.44,-502.00 78.93,-498.20 69.56,-494.05 61.27,-490.02 53.12,-485.69 52.23,-485.20"/>
    </edge>
    <edge id=":65_5" function="internal">
        <lane id=":65_5_0" index="0" disallow="pedestrian tram rail_urban rail rail_electric rail_fast ship" speed="13.60" length="35.42" width="3.50" shape="88.44,-502.00 86.16,-501.22 82.68,-500.36 80.25,-500.02 77.80,-499.91 75.33,-500.07 72.89,-500.52 70.51,-501.25 68.24,-502.27 66.11,-503.54 64.15,-505.02 62.35,-506.68 59.96,-509.38 57.87,-512.31"/>
    </edge>
    <edge id=":65_6" function="internal">
        <lane id=":65_6_0" index="0" disallow="pedestrian tram rail_urban rail rail_electric rail_fast ship" speed="12.68" length="30.68" width="3.50" shape="60.78,-514.25 62.66,-511.62 64.75,-509.25 66.31,-507.82 67.99,-506.54 69.80,-505.46 71.73,-504.59 73.74,-503.96 75.82,-503.58 77.93,-503.45 80.04,-503.54 82.13,-503.83 85.21,-504.59 87.20,-505.27"/>
    </edge>
    <edge id=":65_7" function="internal">
        <lane id=":65_7_0" index="0" disallow="pedestrian tram rail_urban rail rail_electric rail_fast ship" speed="36.11" length="40.22" width="3.50" shape="60.78,-514.25 64.01,-508.91 67.39,-502.54 73.85,-489.65 76.87,-484.26 79.63,-479.91 80.20,-479.07"/>
    </edge>
    <edge id=":65_8" function="internal">
        <lane id=":65_8_0" index="0" disallow="pedestrian tram rail_urban rail rail_electric rail_fast ship" speed="12.07" length="35.28" width="3.50" shape="60.78,-514.25 62.20,-511.87 63.38,-509.43 64.29,-506.88 64.85,-504.23 64.98,-502.88 64.99,-501.53 64.87,-500.18 64.62,-498.84 64.25,-497.54 63.76,-496.28 63.15,-495.07 62.45,-493.91 60.79,-491.76 58.88,-489.84 56.78,-488.13 53.40,-485.87 52.23,-485.20"/>
    </edge>
    <edge id=":65_9" function="internal">
        <lane id=":65_9_0" index="0" disallow="pedestrian tram rail_urban rail rail_electric rail_fast ship" speed="11.06" length="29.44" width="3.50" shape="50.49,-488.23 51.52,-488.83 54.51,-490.81 56.30,-492.27 57.92,-493.88 59.32,-495.68 59.88,-496.59 60.37,-497.57 60.77,-498.57 61.08,-499.60 61.28,-500.65 61.38,-501.72 61.38,-502.80 61.29,-503.86 60.83,-506.07 60.08,-508.21 59.07,-510.29 57.87,-512.31"/>
    </edge>
    <edge id=":65_10" function="internal">
        <lane id=":65_10_0" index="0" disallow="pedestrian tram rail_urban rail rail_electric rail_fast ship" speed="36.11" length="40.51" width="3.50" shape="50.49,-488.23 51.44,-488.76 59.68,-493.14 68.08,-497.22 77.57,-501.43 87.20,-505.27"/>
    </edge>
    <edge id=":65_11" function="internal">
        <lane id=":65_11_0" index="0" disallow="pedestrian tram rail_urban rail rail_electric rail_fast ship" speed="12.89" length="34.81" width="3.50" shape="50.49,-488.23 51.66,-488.85 53.97,-489.89 56.43,-490.69 59.00,-491.19 61.64,-491.33 64.28,-491.06 66.84,-490.40 69.26,-489.37 71.50,-488.06 73.56,-486.52 75.45,-484.80 77.96,-482.03 80.20,-479.07"/>
    </edge>
    <edge id=":66_0" function="internal">
        <lane id=":66_0_0" index="0" disallow="pedestrian tram rail_urban rail rail_electric rail_fast ship" speed="11.21" length="28.86" width="3.50" shape="114.37,-571.38 113.16,-573.36 111.84,-575.22 110.37,-576.92 108.75,-578.43 106.94,-579.70 106.02,-580.20 105.05,-580.63 104.05,-580.98 103.02,-581.23 101.97,-581.40 100.90,-581.47 99.85,-581.47 97.65,-581.21 95.49,-580.67 93.39,-579.89 90.25,-578.36"/>
    </edge>
    <edge id=":66_1" function="internal">
        <lane id=":66_1_0" index="0" disallow="pedestrian tram rail_urban rail rail_electric rail_fast ship" speed="7.50" length="19.56" width="3.50" shape="114.37,-571.38 117.96,-590.61"/>
    </edge>
    <edge id=":66_2" function="internal">
        <lane id=":66_2_0" index="0" disallow="pedestrian tram rail_urban rail rail_electric rail_fast ship" speed="11.28" length="28.43" width="3.50" shape="121.57,-596.30 115.12,-592.28 114.37,-591.56 113.75,-590.73 113.27,-589.80 112.94,-588.82 112.75,-587.79 112.69,-586.75 112.72,-585.71 112.83,-584.68 113.26,-582.64 113.87,-580.65 115.04,-577.75 116.41,-574.94 117.41,-573.11"/>
    </edge>
    <edge id=":66_3" function="internal">
        <lane id=":66_3_0" index="0" disallow="pedestrian tram rail_urban rail rail_electric rail_fast ship" speed="36.11" length="36.10" width="3.50" shape="121.57,-596.30 113.21,-591.26 90.25,-578.36"/>
    </edge>
    <edge id=":66_4" function="internal">
        <lane id=":66_4_0" index="0" disallow="pedestrian tram rail_urban rail rail_electric rail_fast ship" speed="36.11" length="33.32" width="3.50" shape="88.57,-581.43 117.55,-597.87"/>
    </edge>
    <edge id=":66_5" function="internal">
        <lane id=":66_5_0" index="0" disallow="pedestrian tram rail_urban rail rail_electric rail_fast ship" speed="12.21" length="34.45" width="3.50" shape="88.51,-581.40 92.14,-583.18 94.63,-584.08 97.19,-584.73 99.81,-585.04 101.14,-585.05 102.46,-584.96 103.76,-584.75 105.05,-584.44 106.30,-584.01 107.50,-583.47 108.67,-582.84 110.83,-581.32 112.77,-579.52 114.49,-577.52 116.03,-575.37 117.41,-573.11"/>
    </edge>
    <edge id=":68_0" function="internal">
        <lane id=":68_0_0" index="0" disallow="pedestrian tram rail_urban rail rail_electric rail_fast ship" speed="36.11" length="38.78" width="3.50" shape="47.29,-527.44 35.81,-543.05 24.32,-558.68"/>
    </edge>
    <edge id=":68_1" function="internal">
        <lane id=":68_1_0" index="0" disallow="pedestrian tram rail_urban rail rail_electric rail_fast ship" speed="12.20" length="34.07" width="3.50" shape="47.29,-527.44 45.88,-529.52 44.60,-531.74 43.53,-534.11 42.73,-536.61 42.27,-539.21 42.20,-540.59 42.24,-541.95 42.40,-543.30 42.67,-544.63 43.07,-545.92 43.56,-547.18 44.16,-548.40 45.55,-550.61 47.19,-552.64 49.02,-554.47 51.96,-556.88"/>
    </edge>
    <edge id=":68_2" function="internal">
        <lane id=":68_2_0" index="0" disallow="pedestrian tram rail_urban rail rail_electric rail_fast ship" speed="11.20" length="28.52" width="3.50" shape="54.03,-554.06 51.49,-551.97 49.94,-550.42 48.55,-548.72 47.38,-546.86 46.90,-545.88 46.50,-544.86 46.18,-543.81 45.96,-542.73 45.83,-541.65 45.79,-540.55 45.85,-539.45 46.22,-537.29 46.89,-535.21 47.80,-533.21 48.89,-531.30 50.13,-529.49"/>
    </edge>
    <edge id=":68_3" function="internal">
        <lane id=":68_3_0" index="0" disallow="pedestrian tram rail_urban rail rail_electric rail_fast ship" speed="12.27" length="34.46" width="3.50" shape="54.03,-554.06 50.71,-551.87 48.36,-550.65 45.89,-549.68 43.32,-549.04 42.01,-548.86 40.69,-548.78 39.36,-548.82 38.05,-548.97 36.75,-549.24 35.48,-549.62 34.24,-550.11 31.90,-551.35 29.75,-552.89 27.78,-554.66 25.98,-556.61 24.32,-558.68"/>
    </edge>
    <edge id=":68_4" function="internal">
        <lane id=":68_4_0" index="0" disallow="pedestrian tram rail_urban rail rail_electric rail_fast ship" speed="11.28" length="28.92" width="3.50" shape="27.12,-560.79 28.57,-558.96 30.12,-557.28 31.80,-555.77 33.60,-554.48 35.56,-553.44 36.53,-553.06 37.56,-552.75 38.60,-552.53 39.65,-552.41 40.72,-552.38 41.79,-552.44 42.83,-552.58 44.99,-553.12 47.06,-553.93 49.06,-554.97 51.96,-556.88"/>
    </edge>
    <edge id=":68_5" function="internal">
        <lane id=":68_5_0" index="0" disallow="pedestrian tram rail_urban rail rail_electric rail_fast ship" speed="36.11" length="38.85" width="3.50" shape="27.12,-560.79 38.63,-545.13 50.13,-529.49"/>
    </edge>

    <edge id="39093" from="62" to="12" priority="3" type="highway.residential" spreadType="center" length="69.99" shape="170.53,-527.97 198.55,-449.88">
        <lane id="39093_0" index="0" disallow="pedestrian tram rail_urban rail rail_electric rail_fast ship" speed="36.11" length="69.99" width="3.50" customShape="1" shape="173.04,-515.06 198.55,-449.88"/>
    </edge>
    <edge id="39094" from="17" to="62" priority="3" type="highway.residential" spreadType="center" length="70.00" shape="195.29,-448.60 167.24,-526.79">
        <lane id="39094_0" index="0" disallow="pedestrian tram rail_urban rail rail_electric rail_fast ship" speed="36.11" length="70.00" width="3.50" customShape="1" shape="195.29,-448.60 169.78,-513.79"/>
    </edge>
    <edge id="39115" from="46" to="64" priority="3" type="highway.residential" spreadType="center" length="70.02" shape="321.91,-497.14 294.25,-575.64">
        <lane id="39115_0" index="0" disallow="pedestrian tram rail_urban rail rail_electric rail_fast ship" speed="36.11" length="70.02" width="3.50" customShape="1" shape="321.91,-497.14 320.21,-502.05 298.96,-563.29"/>
    </edge>
    <edge id="39116" from="64" to="40" priority="3" type="highway.residential" spreadType="center" length="70.01" shape="297.55,-576.80 325.21,-498.30">
        <lane id="39116_0" index="0" disallow="pedestrian tram rail_urban rail rail_electric rail_fast ship" speed="36.11" length="70.01" width="3.50" customShape="1" shape="302.26,-564.44 323.51,-503.19 325.21,-498.30"/>
    </edge>
    <edge id="39118" from="63" to="65" priority="3" type="highway.residential" spreadType="center" length="38.03" shape="137.07,-527.73 70.08,-493.84">
        <lane id="39118_0" index="0" disallow="pedestrian tram rail_urban rail rail_electric rail_fast ship" speed="36.11" length="38.03" width="3.50" customShape="1" shape="124.01,-515.45 106.23,-508.72 88.44,-502.00"/>
    </edge>
    <edge id="39119" from="65" to="63" priority="3" type="highway.residential" spreadType="center" length="38.03" shape="68.50,-496.96 135.49,-530.85">
        <lane id="39119_0" index="0" disallow="pedestrian tram rail_urban rail rail_electric rail_fast ship" speed="36.11" length="38.03" width="3.50" customShape="1" shape="87.20,-505.27 104.99,-512.00 122.77,-518.72"/>
    </edge>
    <edge id="39121" from="62" to="63" priority="3" type="highway.residential" spreadType="center" length="0.27" shape="168.80,-525.60 136.08,-527.55">
        <lane id="39121_0" index="0" disallow="pedestrian tram rail_urban rail rail_electric rail_fast ship" speed="36.11" length="0.27" width="3.50" customShape="1" shape="153.56,-526.64 153.31,-526.55"/>
    </edge>
    <edge id="39122" from="63" to="62" priority="3" type="highway.residential" spreadType="center" length="0.26" shape="136.29,-531.04 169.00,-529.09">
        <lane id="39122_0" index="0" disallow="pedestrian tram rail_urban rail rail_electric rail_fast ship" speed="36.11" length="0.26" width="3.50" customShape="1" shape="152.10,-529.83 152.22,-529.88 152.34,-529.92"/>
    </edge>
    <edge id="39124" from="61" to="62" priority="3" type="highway.residential" spreadType="center" length="34.55" shape="235.68,-550.56 169.47,-525.69">
        <lane id="39124_0" index="0" disallow="pedestrian tram rail_urban rail rail_electric rail_fast ship" speed="36.11" length="34.55" width="3.50" customShape="1" shape="215.31,-549.76 199.15,-543.73 182.94,-537.68"/>
    </edge>
    <edge id="39125" from="62" to="61" priority="3" type="highway.residential" spreadType="center" length="34.58" shape="168.24,-528.97 234.45,-553.84">
        <lane id="39125_0" index="0" disallow="pedestrian tram rail_urban rail rail_electric rail_fast ship" speed="36.11" length="34.58" width="3.50" customShape="1" shape="181.71,-540.96 197.93,-547.01 214.11,-553.05"/>
    </edge>
    <edge id="39127" from="64" to="61" priority="3" type="highway.residential" spreadType="center" length="26.78" shape="296.59,-574.57 235.71,-550.57">
        <lane id="39127_0" index="0" disallow="pedestrian tram rail_urban rail rail_electric rail_fast ship" speed="36.11" length="26.78" width="3.50" customShape="1" shape="276.20,-573.50 263.76,-568.56 251.31,-563.62"/>
    </edge>
    <edge id="39128" from="61" to="64" priority="3" type="highway.residential" spreadType="center" length="26.80" shape="234.42,-553.83 295.31,-577.83">
        <lane id="39128_0" index="0" disallow="pedestrian tram rail_urban rail rail_electric rail_fast ship" speed="36.11" length="26.80" width="3.50" customShape="1" shape="250.02,-566.87 262.47,-571.81 274.93,-576.76"/>
    </edge>
    <edge id="39130" from="53" to="64" priority="3" type="highway.residential" spreadType="center" length="35.37" shape="344.96,-601.25 296.70,-574.62">
        <lane id="39130_0" index="0" disallow="pedestrian tram rail_urban rail rail_electric rail_fast ship" speed="36.11" length="35.37" width="3.50" customShape="1" shape="344.96,-601.25 328.59,-594.60 312.19,-587.94"/>
    </edge>
    <edge id="39131" from="64" to="39" priority="3" type="highway.residential" spreadType="center" length="35.41" shape="295.02,-577.69 343.67,-604.51">
        <lane id="39131_0" index="0" disallow="pedestrian tram rail_urban rail rail_electric rail_fast ship" speed="36.11" length="35.41" width="3.50" customShape="1" shape="310.87,-591.18 327.27,-597.84 343.67,-604.51"/>