<routes>
	<vehicle depart="0.1" departLane="0" departPos="81.1605305281151" departSpeed="9.227548" id="329" type="passenger">
		<route edges=":89_5 14702 14705 17531"/>
	</vehicle>
	<vehicle depart="0.1" departLane="0" departPos="7.35585466772558" departSpeed="0.0" id="332" type="passenger">
		<route edges="14391 14708"/>
	</vehicle>
	<vehicle depart="0.1" departLane="0" departPos="10.715540497436312" departSpeed="1.4159815" id="333" type="passenger">
		<route edges="14705 14708 14753"/>
	</vehicle>
	<vehicle depart="0.1" departLane="0" departPos="6.028884422933405" departSpeed="4.3120985" id="340" type="passenger">
		<route edges=":88_3 14701"/>
	</vehicle>
	<vehicle depart="0.1" departLane="0" departPos="6.657027758737432" departSpeed="2.7734352" id="369" type="passenger">
		<route edges="14338 14701"/>
	</vehicle>
	<vehicle depart="0.1" departLane="0" departPos="31.53512240508408" departSpeed="3.7323" id="33" type="motorcycle">
		<route edges=":88_5 14705 17531"/>
	</vehicle>
	<vehicle depart="0.1" departLane="0" departPos="7.117583128972711" departSpeed="0.0" id="328" type="motorcycle">
		<route edges=":84_4 14414"/>
	</vehicle>
	<vehicle depart="0.1" departLane="0" departPos="32.97045916657416" departSpeed="6.4669853" id="30" type="truck">
		<route edges=":87_1 14707 14704"/>
	</vehicle>
	<vehicle depart="0.1" departLane="0" departPos="27.38026419856632" departSpeed="8.1295434" id="345" type="truck">
		<route edges=":84_9 14704 14339"/>
	</vehicle>
</routes>
