<routes>
	<vehicle depart="0.1" departLane="0" departPos="22.70690768490347" departSpeed="3.1136904" id="342" type="bicycle">
		<route edges="1492 1502"/>
	</vehicle>
	<vehicle depart="0.1" departLane="0" departPos="53.42849516306841" departSpeed="4.3521058" id="334" type="bus">
		<route edges="1492 1502"/>
	</vehicle>
	<vehicle depart="0.1" departLane="0" departPos="15.685569089982065" departSpeed="0.0" id="32" type="passenger">
		<route edges="1489 1900"/>
	</vehicle>
	<vehicle depart="0.1" departLane="0" departPos="12.237829761633234" departSpeed="12.41962" id="310" type="passenger">
		<route edges=":50_5 1489 1900"/>
	</vehicle>
	<vehicle depart="0.1" departLane="0" departPos="2.5" departSpeed="9.519313" id="315" type="passenger">
		<route edges=":50_4 1502 1609"/>
	</vehicle>
	<vehicle depart="0.1" departLane="0" departPos="5.002721995466771" departSpeed="4.4341905" id="336" type="passenger">
		<route edges="1490 1502"/>
	</vehicle>
	<vehicle depart="0.1" departLane="0" departPos="36.97896219738986" departSpeed="2.3623747" id="338" type="passenger">
		<route edges="1492 1502"/>
	</vehicle>
	<vehicle depart="0.1" departLane="0" departPos="14.552510466377873" departSpeed="2.0986984" id="349" type="passenger">
		<route edges="1492 1502"/>
	</vehicle>
	<vehicle depart="0.1" departLane="0" departPos="62.22794031021932" departSpeed="4.3195652" id="321" type="motorcycle">
		<route edges="1492 1489"/>
	</vehicle>
</routes>
