<!-- generated on Tue Feb  9 22:05:59 2021 by Eclipse SUMO netconvert Version 1.8.0
<configuration xmlns:xsi="http://www.w3.org/2001/XMLSchema-instance" xsi:noNamespaceSchemaLocation="http://sumo.dlr.de/xsd/netconvertConfiguration.xsd">

    <input>
        <node-files value="./converted_scenarios/scenario-factory/DEU_Guetersloh-16_2_I-1-1/DEU_Guetersloh-16_2_I-1-1.nod.xml"/>
        <edge-files value="./converted_scenarios/scenario-factory/DEU_Guetersloh-16_2_I-1-1/DEU_Guetersloh-16_2_I-1-1.edg.xml"/>
        <connection-files value="./converted_scenarios/scenario-factory/DEU_Guetersloh-16_2_I-1-1/DEU_Guetersloh-16_2_I-1-1.con.xml"/>
        <tllogic-files value="./converted_scenarios/scenario-factory/DEU_Guetersloh-16_2_I-1-1/DEU_Guetersloh-16_2_I-1-1.tll.xml"/>
        <type-files value="/home/zen/commonroad-interactive-benchmarks/install/commonroad-map-tool/crmapconverter/sumo_map/templates/DEU.typ.xml"/>
    </input>

    <output>
        <output-file value="./converted_scenarios/scenario-factory/DEU_Guetersloh-16_2_I-1-1/DEU_Guetersloh-16_2_I-1-1.net.xml"/>
    </output>

    <processing>
        <geometry.remove.keep-edges.explicit value="true"/>
        <geometry.avoid-overlap value="true"/>
        <offset.disable-normalization value="true"/>
    </processing>

    <junctions>
        <no-turnarounds value="true"/>
        <junctions.internal-link-detail value="20"/>
    </junctions>

    <report>
        <aggregate-warnings value="5"/>
    </report>

    <random_number>
        <seed value="1234"/>
    </random_number>

</configuration>
--><net xmlns:xsi="http://www.w3.org/2001/XMLSchema-instance" version="1.6" junctionCornerDetail="5" junctionLinkDetail="20" limitTurnSpeed="5.50" xsi:noNamespaceSchemaLocation="http://sumo.dlr.de/xsd/net_file.xsd">

    <location netOffset="0.00,0.00" convBoundary="-13.03,211.35,184.41,396.78" origBoundary="-13.03,211.35,184.41,396.78" projParameter="!"/>

    <type id="highway.bridleway" priority="1" speed="2.78" allow="pedestrian" oneway="1" width="2.00"/>
    <type id="highway.bus_guideway" priority="1" speed="27.78" allow="bus" oneway="1"/>
    <type id="highway.cycleway" priority="1" speed="8.33" allow="bicycle" oneway="0" width="1.00"/>
    <type id="highway.footway" priority="1" speed="2.78" allow="pedestrian" oneway="1" width="2.00"/>
    <type id="highway.ford" priority="1" speed="2.78" allow="army" oneway="0"/>
    <type id="highway.living_street" priority="2" speed="2.78" disallow="tram rail_urban rail rail_electric rail_fast ship" oneway="0"/>
    <type id="highway.motorway" priority="14" speed="39.44" allow="private emergency authority army vip passenger hov taxi bus coach delivery truck trailer motorcycle evehicle custom1 custom2" oneway="1"/>
    <type id="highway.motorway_link" priority="9" speed="22.22" allow="private emergency authority army vip passenger hov taxi bus coach delivery truck trailer motorcycle evehicle custom1 custom2" oneway="1"/>
    <type id="highway.path" priority="1" speed="2.78" allow="pedestrian bicycle" oneway="0" width="2.00"/>
    <type id="highway.pedestrian" priority="1" speed="2.78" allow="pedestrian" oneway="1" width="2.00"/>
    <type id="highway.primary" priority="12" speed="27.78" disallow="pedestrian tram rail_urban rail rail_electric rail_fast ship" oneway="0"/>
    <type id="highway.primary_link" priority="7" speed="22.22" disallow="pedestrian tram rail_urban rail rail_electric rail_fast ship" oneway="0"/>
    <type id="highway.raceway" priority="15" speed="83.33" allow="vip" oneway="0"/>
    <type id="highway.residential" priority="3" speed="13.89" disallow="pedestrian tram rail_urban rail rail_electric rail_fast ship" oneway="0"/>
    <type id="highway.secondary" priority="11" speed="27.78" disallow="pedestrian tram rail_urban rail rail_electric rail_fast ship" oneway="0"/>
    <type id="highway.secondary_link" priority="6" speed="22.22" disallow="pedestrian tram rail_urban rail rail_electric rail_fast ship" oneway="0"/>
    <type id="highway.service" priority="1" speed="5.56" allow="pedestrian delivery bicycle" oneway="0"/>
    <type id="highway.stairs" priority="1" speed="1.39" allow="pedestrian" oneway="1" width="2.00"/>
    <type id="highway.step" priority="1" speed="1.39" allow="pedestrian" oneway="1" width="2.00"/>
    <type id="highway.steps" priority="1" speed="1.39" allow="pedestrian" oneway="1" width="2.00"/>
    <type id="highway.tertiary" priority="10" speed="22.22" disallow="pedestrian tram rail_urban rail rail_electric rail_fast ship" oneway="0"/>
    <type id="highway.tertiary_link" priority="5" speed="22.22" disallow="pedestrian tram rail_urban rail rail_electric rail_fast ship" oneway="0"/>
    <type id="highway.track" priority="1" speed="5.56" allow="pedestrian motorcycle moped bicycle" oneway="0"/>
    <type id="highway.trunk" priority="13" speed="27.78" disallow="pedestrian bicycle tram rail_urban rail rail_electric rail_fast ship" oneway="0"/>
    <type id="highway.trunk_link" priority="8" speed="22.22" disallow="pedestrian bicycle tram rail_urban rail rail_electric rail_fast ship" oneway="0"/>
    <type id="highway.unclassified" priority="4" speed="13.89" disallow="pedestrian tram rail_urban rail rail_electric rail_fast ship" oneway="0"/>
    <type id="highway.unsurfaced" priority="1" speed="8.33" disallow="tram rail_urban rail rail_electric rail_fast ship" oneway="0"/>
    <type id="railway.highspeed" priority="21" speed="69.44" allow="rail_fast" oneway="1"/>
    <type id="railway.light_rail" priority="19" speed="27.78" allow="rail_urban" oneway="1"/>
    <type id="railway.preserved" priority="16" speed="27.78" allow="rail" oneway="1"/>
    <type id="railway.rail" priority="20" speed="44.44" allow="rail" oneway="1"/>
    <type id="railway.subway" priority="18" speed="27.78" allow="rail_urban" oneway="1"/>
    <type id="railway.tram" priority="17" speed="13.89" allow="tram" oneway="1"/>

    <edge id=":25_0" function="internal">
        <lane id=":25_0_0" index="0" disallow="pedestrian tram rail_urban rail rail_electric rail_fast ship" speed="36.11" length="3.37" width="3.50" shape="143.51,270.20 143.26,270.22 143.03,270.24 142.83,270.25 142.64,270.26 142.47,270.27 142.32,270.27 142.17,270.28 142.03,270.28 141.90,270.27 141.76,270.27 141.63,270.27 141.49,270.26 141.34,270.26 141.19,270.25 141.02,270.24 140.83,270.24 140.62,270.23 140.40,270.22 140.14,270.22"/>
    </edge>
    <edge id=":32_0" function="internal">
        <lane id=":32_0_0" index="0" disallow="pedestrian tram rail_urban rail rail_electric rail_fast ship" speed="11.34" length="28.89" width="3.50" shape="114.42,314.63 112.08,314.69 109.81,314.92 107.60,315.36 105.50,316.03 103.51,316.98 102.63,317.54 101.78,318.18 101.00,318.90 100.28,319.68 99.63,320.52 99.05,321.42 98.54,322.34 97.71,324.40 97.13,326.56 96.78,328.78 96.58,332.26"/>
    </edge>
    <edge id=":32_1" function="internal">
        <lane id=":32_1_0" index="0" disallow="pedestrian tram rail_urban rail rail_electric rail_fast ship" speed="36.11" length="28.71" width="3.50" shape="114.42,314.63 100.05,314.45 85.71,314.27"/>
    </edge>
    <edge id=":32_2" function="internal">
        <lane id=":32_2_0" index="0" disallow="pedestrian tram rail_urban rail rail_electric rail_fast ship" speed="36.11" length="28.64" width="3.50" shape="85.77,310.77 100.09,310.95 114.41,311.13"/>
    </edge>
    <edge id=":32_3" function="internal">
        <lane id=":32_3_0" index="0" disallow="pedestrian tram rail_urban rail rail_electric rail_fast ship" speed="10.79" length="26.72" width="3.50" shape="85.77,310.77 87.21,310.90 88.68,311.29 90.06,311.93 91.28,312.81 92.32,313.85 93.18,314.98 93.88,316.17 94.46,317.42 95.29,319.86 95.85,322.35 96.22,324.85 96.51,328.55 96.58,332.26"/>
    </edge>
    <edge id=":32_4" function="internal">
        <lane id=":32_4_0" index="0" disallow="pedestrian tram rail_urban rail rail_electric rail_fast ship" speed="9.68" length="21.25" width="3.50" shape="93.08,332.21 93.03,329.03 92.82,325.85 92.56,323.74 92.16,321.65 91.58,319.60 91.20,318.61 90.74,317.65 90.18,316.75 89.50,315.93 88.70,315.23 87.78,314.70 86.77,314.38 85.71,314.27"/>
    </edge>
    <edge id=":32_5" function="internal">
        <lane id=":32_5_0" index="0" disallow="pedestrian tram rail_urban rail rail_electric rail_fast ship" speed="12.34" length="34.42" width="3.50" shape="93.08,332.21 93.31,328.26 93.73,325.64 94.41,323.08 95.41,320.63 96.03,319.46 96.75,318.35 97.56,317.31 98.46,316.33 99.44,315.44 100.50,314.64 101.62,313.94 104.00,312.79 106.53,311.99 109.12,311.47 111.76,311.20 114.41,311.13"/>
    </edge>
    <edge id=":33_0" function="internal">
        <lane id=":33_0_0" index="0" disallow="pedestrian tram rail_urban rail rail_electric rail_fast ship" speed="36.11" length="28.58" width="3.50" shape="85.50,314.26 71.17,313.91 56.93,313.56"/>
    </edge>
    <edge id=":33_1" function="internal">
        <lane id=":33_1_0" index="0" disallow="pedestrian tram rail_urban rail rail_electric rail_fast ship" speed="10.61" length="26.56" width="3.50" shape="85.50,314.27 84.14,314.17 82.84,313.90 81.60,313.44 80.44,312.79 79.42,311.95 78.53,310.96 77.79,309.87 77.17,308.69 76.68,307.46 75.96,304.91 75.52,302.29 75.24,298.32 75.28,294.35 75.34,293.02"/>
    </edge>
    <edge id=":33_2" function="internal">
        <lane id=":33_2_0" index="0" disallow="pedestrian tram rail_urban rail rail_electric rail_fast ship" speed="9.47" length="20.84" width="3.50" shape="78.84,293.23 78.78,294.37 78.73,297.83 78.92,301.24 79.24,303.43 79.76,305.56 80.10,306.53 80.51,307.46 81.01,308.30 81.58,309.04 82.21,309.65 82.92,310.13 83.71,310.47 84.57,310.69 85.55,310.77"/>
    </edge>
    <edge id=":33_3" function="internal">
        <lane id=":33_3_0" index="0" disallow="pedestrian tram rail_urban rail rail_electric rail_fast ship" speed="12.27" length="33.97" width="3.50" shape="78.84,293.23 78.60,295.75 78.18,298.26 77.52,300.76 76.58,303.21 75.33,305.51 74.55,306.64 73.69,307.68 72.74,308.64 71.72,309.53 70.62,310.32 69.47,311.01 68.25,311.62 65.80,312.54 63.26,313.14 60.69,313.47 56.93,313.56"/>
    </edge>
    <edge id=":33_4" function="internal">
        <lane id=":33_4_0" index="0" disallow="pedestrian tram rail_urban rail rail_electric rail_fast ship" speed="11.28" length="28.53" width="3.50" shape="57.00,310.06 60.29,309.98 62.47,309.70 64.61,309.20 66.66,308.43 67.64,307.93 68.58,307.37 69.47,306.72 70.30,306.01 71.07,305.22 71.76,304.37 72.39,303.47 73.44,301.54 74.22,299.49 74.78,297.37 75.14,295.21 75.34,293.02"/>
    </edge>
    <edge id=":33_5" function="internal">
        <lane id=":33_5_0" index="0" disallow="pedestrian tram rail_urban rail rail_electric rail_fast ship" speed="36.11" length="28.56" width="3.50" shape="57.00,310.06 71.26,310.41 85.55,310.77"/>
    </edge>
    <edge id=":34_0" function="internal">
        <lane id=":34_0_0" index="0" disallow="pedestrian tram rail_urban rail rail_electric rail_fast ship" speed="8.92" length="17.25" width="3.50" shape="86.11,272.36 85.38,272.85 84.08,274.02 82.60,275.83 81.42,277.85 80.53,280.01 79.77,282.83 79.32,285.72 79.17,287.48"/>
    </edge>
    <edge id=":34_1" function="internal">
        <lane id=":34_1_0" index="0" disallow="pedestrian tram rail_urban rail rail_electric rail_fast ship" speed="36.11" length="15.22" width="3.50" shape="86.17,269.19 78.87,269.02 70.95,268.83"/>
    </edge>
    <edge id=":34_2" function="internal">
        <lane id=":34_2_0" index="0" disallow="pedestrian tram rail_urban rail rail_electric rail_fast ship" speed="9.17" length="20.19" width="3.50" shape="86.21,267.07 84.35,265.96 82.96,264.82 81.74,263.49 80.73,261.99 79.94,260.37 79.21,258.09 78.81,255.72 78.68,252.71 78.88,249.72"/>
    </edge>
    <edge id=":34_3" function="internal">
        <lane id=":34_3_0" index="0" disallow="pedestrian tram rail_urban rail rail_electric rail_fast ship" speed="36.11" length="37.52" width="3.50" shape="82.36,250.10 81.80,255.27 80.26,271.88 79.17,287.48"/>
    </edge>
    <edge id=":34_4" function="internal">
        <lane id=":34_4_0" index="0" disallow="pedestrian tram rail_urban rail rail_electric rail_fast ship" speed="10.06" length="21.51" width="3.50" shape="82.36,250.10 81.81,253.48 81.05,256.22 79.96,258.86 78.82,260.83 77.43,262.64 75.80,264.23 73.95,265.56 71.93,266.63 71.00,266.97"/>
    </edge>
    <edge id=":34_5" function="internal">
        <lane id=":34_5_0" index="0" disallow="pedestrian tram rail_urban rail rail_electric rail_fast ship" speed="8.54" length="16.60" width="3.50" shape="75.68,287.27 75.72,283.77 75.43,280.87 74.93,278.59 74.14,276.39 73.32,274.85 72.29,273.43 71.07,272.18 70.86,272.01"/>
    </edge>
    <edge id=":34_6" function="internal">
        <lane id=":34_6_0" index="0" disallow="pedestrian tram rail_urban rail rail_electric rail_fast ship" speed="36.11" length="37.69" width="3.50" shape="75.68,287.27 76.78,271.60 78.32,254.92 78.88,249.72"/>
    </edge>
    <edge id=":35_0" function="internal">
        <lane id=":35_0_0" index="0" disallow="pedestrian tram rail_urban rail rail_electric rail_fast ship" speed="36.11" length="3.01" width="3.50" shape="25.82,267.60 22.81,267.53"/>
    </edge>
    <edge id=":35_1" function="internal">
        <lane id=":35_1_0" index="0" disallow="pedestrian tram rail_urban rail rail_electric rail_fast ship" speed="36.11" length="3.01" width="3.50" shape="25.82,267.60 22.81,267.45"/>
    </edge>

    <edge id="68965" from="34" to="35" priority="3" type="highway.residential" spreadType="center" length="45.15">
        <lane id="68965_0" index="0" disallow="pedestrian tram rail_urban rail rail_electric rail_fast ship" speed="36.11" length="45.15" width="3.50" customShape="1" shape="70.95,268.89 42.31,268.07 25.82,267.60"/>
    </edge>
    <edge id="69068" from="32" to="20" priority="3" type="highway.residential" spreadType="center" length="70.00" shape="99.99,319.77 71.94,396.78">
        <lane id="69068_0" index="0" disallow="pedestrian tram rail_urban rail rail_electric rail_fast ship" speed="36.11" length="70.00" width="3.50" customShape="1" shape="96.58,332.26 96.49,336.31 96.11,341.39 95.43,345.92 94.38,350.38 92.75,355.73 90.62,361.46 87.96,367.52 84.53,374.34 78.83,384.57 71.94,396.78"/>
    </edge>
    <edge id="69069" from="27" to="32" priority="3" type="highway.residential" spreadType="center" length="70.03" shape="68.08,396.61 96.70,318.57">
        <lane id="69069_0" index="0" disallow="pedestrian tram rail_urban rail rail_electric rail_fast ship" speed="36.11" length="70.03" width="3.50" customShape="1" shape="68.08,396.61 68.67,395.47 75.61,383.14 81.25,373.05 84.63,366.38 87.24,360.48 89.34,354.92 90.93,349.72 91.96,345.44 92.62,341.09 92.99,336.18 93.08,332.18"/>
    </edge>
    <edge id="69425" from="25" to="34" priority="3" type="highway.residential" spreadType="center" length="53.98">
        <lane id="69425_0" index="0" disallow="pedestrian tram rail_urban rail rail_electric rail_fast ship" speed="36.11" length="53.98" width="3.50" customShape="1" shape="140.14,270.22 119.67,269.85 86.17,269.25"/>
    </edge>
    <edge id="69622" from="32" to="21" priority="3" type="highway.residential" spreadType="center" length="70.00" shape="98.16,317.47 184.41,310.85">
        <lane id="69622_0" index="0" disallow="pedestrian tram rail_urban rail rail_electric rail_fast ship" speed="36.11" length="70.00" width="3.50" customShape="1" shape="114.41,311.13 157.16,310.96 184.41,310.85"/>
    </edge>
    <edge id="69623" from="26" to="32" priority="3" type="highway.residential" spreadType="center" length="70.00" shape="184.41,314.35 98.43,320.96">
        <lane id="69623_0" index="0" disallow="pedestrian tram rail_urban rail rail_electric rail_fast ship" speed="36.11" length="70.00" width="3.50" customShape="1" shape="184.41,314.35 157.17,314.46 114.41,314.63"/>
    </edge>
    <edge id="69625" from="33" to="32" priority="3" type="highway.residential" spreadType="center" length="0.26" shape="73.91,304.23 99.16,317.67">
        <lane id="69625_0" index="0" disallow="pedestrian tram rail_urban rail rail_electric rail_fast ship" speed="36.11" length="0.26" width="3.50" customShape="1" shape="85.55,310.77 85.81,310.77"/>
    </edge>
    <edge id="69626" from="32" to="33" priority="3" type="highway.residential" spreadType="center" length="0.25" shape="97.51,320.75 72.27,307.31">
        <lane id="69626_0" index="0" disallow="pedestrian tram rail_urban rail rail_electric rail_fast ship" speed="36.11" length="0.25" width="3.50" customShape="1" shape="85.71,314.27 85.59,314.27 85.46,314.26"/>
    </edge>
    <edge id="69628" from="24" to="33" priority="3" type="highway.residential" spreadType="center" length="70.03" shape="-12.96,307.92 73.15,304.07">
        <lane id="69628_0" index="0" disallow="pedestrian tram rail_urban rail rail_electric rail_fast ship" speed="36.11" length="70.03" width="3.50" customShape="1" shape="-12.96,307.92 57.04,310.06"/>
    </edge>
    <edge id="69629" from="33" to="5" priority="3" type="highway.residential" spreadType="center" length="69.99" shape="73.30,307.57 -13.03,311.42">
        <lane id="69629_0" index="0" disallow="pedestrian tram rail_urban rail rail_electric rail_fast ship" speed="36.11" length="69.99" width="3.50" customShape="1" shape="56.93,313.56 -13.03,311.42"/>
    </edge>
    <edge id="69681" from="34" to="17" priority="3" type="highway.residential" spreadType="center" length="38.60" shape="77.23,268.64 83.11,211.35">
        <lane id="69681_0" index="0" disallow="pedestrian tram rail_urban rail rail_electric rail_fast ship" speed="36.11" length="38.60" width="3.50" customShape="1" shape="78.88,249.72 81.00,230.52 83.11,211.35"/>
    </edge>
    <edge id="69682" from="30" to="34" priority="3" type="highway.residential" spreadType="center" length="38.61" shape="86.59,211.72 80.70,269.00">
        <lane id="69682_0" index="0" disallow="pedestrian tram rail_urban rail rail_electric rail_fast ship" speed="36.11" length="38.61" width="3.50" customShape="1" shape="86.59,211.72 84.48,230.91 82.36,250.10"/>
    </edge>
    <edge id="69684" from="33" to="34" priority="3" type="highway.residential" spreadType="center" length="5.76" shape="71.46,305.55 77.26,268.42">
        <lane id="69684_0" index="0" disallow="pedestrian tram rail_urban rail rail_electric rail_fast ship" speed="36.11" length="5.76" width="3.50" customShape="1" shape="75.34,293.02 75.51,290.14 75.68,287.27"/>
    </edge>
    <edge id="69685" from="34" to="33" priority="3" type="highway.residential" spreadType="center" length="5.77" shape="80.71,268.96 74.92,306.09">
        <lane id="69685_0" index="0" disallow="pedestrian tram rail_urban rail rail_electric rail_fast ship" speed="36.11" length="5.77" width="3.50" customShape="1" shape="79.17,287.48 79.01,290.35 78.84,293.24"/>
    </edge>
    <edge id="73518" from="31" to="25" priority="3" type="highway.residential" spreadType="center" length="26.18">
        <lane id="73518_0" index="0" disallow="pedestrian tram rail_urban rail rail_electric rail_fast ship" speed="36.11" length="26.18" width="3.50" customShape="1" shape="159.36,252.99 158.93,256.45 158.26,259.27 157.46,261.45 156.39,263.51 155.01,265.38 153.78,266.61 152.39,267.66 150.35,268.77 148.16,269.54 145.88,270.01 143.51,270.20"/>
    </edge>
    <edge id="73659" from="35" to="36" priority="3" type="highway.residential" spreadType="center" length="30.59">
        <lane id="73659_0" index="0" disallow="pedestrian tram rail_urban rail rail_electric rail_fast ship" speed="36.11" length="30.59" width="3.50" customShape="1" shape="22.81,267.53 -7.77,266.83"/>
    </edge>
    <edge id="73663" from="35" to="36" priority="3" type="highway.residential" spreadType="center" length="24.89">
        <lane id="73663_0" index="0" disallow="pedestrian tram rail_urban rail rail_electric rail_fast ship" speed="36.11" length="24.89" width="3.50" customShape="1" shape="22.81,267.45 21.44,267.35 18.51,266.82 16.24,266.10 14.10,265.05 12.64,264.02 11.35,262.78 10.29,261.34 9.48,259.75 8.90,258.06 8.45,255.72 8.32,253.34 8.44,251.27"/>
    </edge>

    <junction id="17" type="dead_end" x="83.11" y="211.35" incLanes="69681_0" intLanes="" shape="81.37,211.16 84.85,211.54" rightOfWay="edgePriority"/>
    <junction id="20" type="dead_end" x="71.94" y="396.78" incLanes="69068_0" intLanes="" shape="73.46,397.64 70.42,395.92" rightOfWay="edgePriority"/>
    <junction id="21" type="dead_end" x="184.41" y="310.85" incLanes="69622_0" intLanes="" shape="184.40,309.10 184.42,312.60" rightOfWay="edgePriority"/>
    <junction id="24" type="dead_end" x="-12.96" y="307.92" incLanes="" intLanes="" shape="-13.02,309.67 -12.91,306.17" rightOfWay="edgePriority"/>
    <junction id="25" type="priority" x="141.83" y="270.25" incLanes="73518_0" intLanes=":25_0_0" shape="143.51,271.96 143.51,268.45 142.28,268.52 141.84,268.52 141.41,268.51 140.89,268.49 140.18,268.47 140.11,271.97 141.37,272.01 141.82,272.03 142.26,272.03 142.79,272.01" rightOfWay="edgePriority">
        <request index="0" response="0" foes="0" cont="0"/>
    </junction>
    <junction id="26" type="dead_end" x="184.41" y="314.35" incLanes="" intLanes="" shape="184.40,312.60 184.41,316.10" rightOfWay="edgePriority"/>
    <junction id="27" type="dead_end" x="68.08" y="396.61" incLanes="" intLanes="" shape="69.64,397.41 66.52,395.82" rightOfWay="edgePriority"/>
    <junction id="30" type="dead_end" x="86.59" y="211.72" incLanes="" intLanes="" shape="84.85,211.53 88.33,211.91" rightOfWay="edgePriority"/>
    <junction id="31" type="dead_end" x="159.36" y="252.99" incLanes="" intLanes="" shape="157.62,252.77 161.09,253.20" rightOfWay="edgePriority"/>
    <junction id="32" type="priority" x="98.33" y="319.21" incLanes="69623_0 69625_0 69069_0" intLanes=":32_0_0 :32_1_0 :32_2_0 :32_3_0 :32_4_0 :32_5_0" shape="114.43,316.38 114.40,309.38 85.79,309.02 85.69,316.02 88.98,317.85 90.10,320.09 90.86,323.22 91.27,327.24 91.33,332.14 98.33,332.30 98.87,327.45 100.27,323.48 102.53,320.39 105.64,318.17 109.61,316.84">
        <request index="0" response="000000" foes="001000" cont="0"/>
        <request index="1" response="000000" foes="111000" cont="0"/>
        <request index="2" response="000000" foes="100000" cont="0"/>
        <request index="3" response="000011" foes="100011" cont="0"/>
        <request index="4" response="000010" foes="000010" cont="0"/>
        <request index="5" response="001110" foes="001110" cont="0"/>
    </junction>
    <junction id="33" type="priority" x="73.19" y="305.82" incLanes="69626_0 69685_0 69628_0" intLanes=":33_0_0 :33_1_0 :33_2_0 :33_3_0 :33_4_0 :33_5_0" shape="85.47,316.01 85.58,309.02 82.40,307.23 81.38,305.05 80.73,302.00 80.47,298.10 80.58,293.33 73.60,292.92 72.88,297.76 71.35,301.68 69.01,304.70 65.85,306.82 61.88,308.02 57.09,308.31 56.88,315.31">
        <request index="0" response="000000" foes="001000" cont="0"/>
        <request index="1" response="110000" foes="111000" cont="0"/>
        <request index="2" response="100000" foes="100000" cont="0"/>
        <request index="3" response="100011" foes="100011" cont="0"/>
        <request index="4" response="000000" foes="000010" cont="0"/>
        <request index="5" response="000000" foes="001110" cont="0"/>
    </junction>
    <junction id="34" type="priority" x="78.97" y="268.77" incLanes="69425_0 69682_0 69684_0" intLanes=":34_0_0 :34_1_0 :34_2_0 :34_3_0 :34_4_0 :34_5_0 :34_6_0" shape="86.14,270.99 86.20,267.50 84.19,265.55 83.68,263.16 83.49,259.82 83.63,255.53 84.09,250.29 77.14,249.52 76.42,254.94 75.59,259.37 74.62,262.80 73.54,265.24 72.33,266.69 71.00,267.14 70.90,270.64 73.01,272.53 73.66,274.83 74.02,278.04 74.12,282.15 73.93,287.17 80.92,287.58 81.34,282.49 81.93,278.33 82.71,275.10 83.67,272.80 84.82,271.43">
        <request index="0" response="0001000" foes="0001000" cont="0"/>
        <request index="1" response="1111000" foes="1111000" cont="0"/>
        <request index="2" response="1011000" foes="1011000" cont="0"/>
        <request index="3" response="0000000" foes="0000111" cont="0"/>
        <request index="4" response="1100000" foes="1100110" cont="0"/>
        <request index="5" response="0000000" foes="0010010" cont="0"/>
        <request index="6" response="0000000" foes="0010110" cont="0"/>
    </junction>
    <junction id="35" type="priority" x="24.41" y="267.56" incLanes="68965_0" intLanes=":35_0_0 :35_1_0" shape="25.77,269.35 25.87,265.85 22.85,265.70 22.77,269.27">
        <request index="0" response="00" foes="00" cont="0"/>
        <request index="1" response="00" foes="00" cont="0"/>
    </junction>
    <junction id="36" type="dead_end" x="-0.35" y="258.29" incLanes="73659_0 73663_0" intLanes="" shape="-7.80,268.58 -7.74,265.08 6.70,251.07 10.18,251.48"/>
    <junction id="5" type="dead_end" x="-13.03" y="311.42" incLanes="69629_0" intLanes="" shape="-13.09,313.17 -12.98,309.67" rightOfWay="edgePriority"/>

    <connection from="68965" to="73659" fromLane="0" toLane="0" contPos="-4.00" via=":35_0_0" dir="s" state="M"/>
    <connection from="68965" to="73663" fromLane="0" toLane="0" contPos="-4.00" via=":35_1_0" dir="s" state="M"/>
    <connection from="69069" to="69626" fromLane="0" toLane="0" contPos="-4.00" shape="93.08,332.21 93.03,329.03 92.82,325.85 92.56,323.74 92.16,321.65 91.58,319.60 91.20,318.61 90.74,317.65 90.18,316.75 89.50,315.93 88.70,315.23 87.78,314.70 86.77,314.38 85.71,314.27" via=":32_4_0" dir="r" state="m"/>
    <connection from="69069" to="69622" fromLane="0" toLane="0" contPos="-4.00" shape="93.08,332.21 93.31,328.26 93.73,325.64 94.41,323.08 95.41,320.63 96.03,319.46 96.75,318.35 97.56,317.31 98.46,316.33 99.44,315.44 100.50,314.64 101.62,313.94 104.00,312.79 106.53,311.99 109.12,311.47 111.76,311.20 114.41,311.13" via=":32_5_0" dir="l" state="m"/>
    <connection from="69425" to="69685" fromLane="0" toLane="0" contPos="-4.00" shape="97.52,269.45 94.60,269.54 91.71,269.97 89.46,270.61 87.33,271.56 85.38,272.85 84.08,274.02 82.60,275.83 81.42,277.85 80.53,280.01 79.77,282.83 79.32,285.72 79.17,287.48" via=":34_0_0" dir="r" state="m"/>
    <connection from="69425" to="68965" fromLane="0" toLane="0" contPos="-4.00" shape="97.52,269.45 78.87,269.02 60.22,268.59" via=":34_1_0" dir="s" state="m"/>
    <connection from="69425" to="69681" fromLane="0" toLane="0" contPos="-4.00" shape="97.52,269.45 93.92,269.22 90.96,268.74 88.64,268.10 86.41,267.19 84.35,265.96 82.96,264.82 81.74,263.49 80.73,261.99 79.94,260.37 79.21,258.09 78.81,255.72 78.68,252.71 78.88,249.72" via=":34_2_0" dir="l" state="m"/>
    <connection from="69623" to="69068" fromLane="0" toLane="0" contPos="-4.00" shape="114.41,314.63 112.08,314.69 109.81,314.92 107.60,315.36 105.50,316.03 103.51,316.98 102.63,317.54 101.78,318.18 101.00,318.90 100.28,319.68 99.63,320.52 99.05,321.42 98.54,322.34 97.71,324.40 97.13,326.56 96.78,328.78 96.58,332.26" via=":32_0_0" dir="r" state="M"/>
    <connection from="69623" to="69626" fromLane="0" toLane="0" contPos="-4.00" shape="114.41,314.63 100.05,314.45 85.71,314.27" via=":32_1_0" dir="s" state="M"/>
    <connection from="69625" to="69622" fromLane="0" toLane="0" contPos="-4.00" shape="85.81,310.77 100.09,310.95 114.41,311.13" via=":32_2_0" dir="s" state="M"/>
    <connection from="69625" to="69068" fromLane="0" toLane="0" contPos="-4.00" shape="85.81,310.77 87.21,310.90 88.68,311.29 90.06,311.93 91.28,312.81 92.32,313.85 93.18,314.98 93.88,316.17 94.46,317.42 95.29,319.86 95.85,322.35 96.22,324.85 96.51,328.55 96.58,332.26" via=":32_3_0" dir="l" state="m"/>
    <connection from="69626" to="69629" fromLane="0" toLane="0" contPos="-4.00" shape="85.46,314.26 71.17,313.91 56.93,313.56" via=":33_0_0" dir="s" state="M"/>
    <connection from="69626" to="69684" fromLane="0" toLane="0" contPos="-4.00" shape="85.46,314.26 84.14,314.17 82.84,313.90 81.60,313.44 80.44,312.79 79.42,311.95 78.53,310.96 77.79,309.87 77.17,308.69 76.68,307.46 75.96,304.91 75.52,302.29 75.24,298.32 75.28,294.35 75.34,293.02" via=":33_1_0" dir="l" state="m"/>
    <connection from="69628" to="69684" fromLane="0" toLane="0" contPos="-4.00" shape="57.00,310.06 60.29,309.98 62.47,309.70 64.61,309.20 66.66,308.43 67.64,307.93 68.58,307.37 69.47,306.72 70.30,306.01 71.07,305.22 71.76,304.37 72.39,303.47 73.44,301.54 74.22,299.49 74.78,297.37 75.14,295.21 75.34,293.02" via=":33_4_0" dir="r" state="M"/>
    <connection from="69628" to="69625" fromLane="0" toLane="0" contPos="-4.00" shape="57.00,310.06 71.26,310.41 85.55,310.77" via=":33_5_0" dir="s" state="M"/>
    <connection from="69682" to="69685" fromLane="0" toLane="0" contPos="-4.00" shape="82.36,250.10 81.80,255.27 80.26,271.88 79.17,287.48" via=":34_3_0" dir="s" state="M"/>
    <connection from="69682" to="68965" fromLane="0" toLane="0" contPos="-4.00" shape="82.36,250.10 81.81,253.48 81.05,256.22 79.96,258.86 78.82,260.83 77.43,262.64 75.80,264.23 73.95,265.56 71.93,266.63 69.26,267.60 66.47,268.22 63.07,268.56 60.22,268.59" via=":34_4_0" dir="l" state="m"/>
    <connection from="69684" to="68965" fromLane="0" toLane="0" contPos="-4.00" shape="75.68,287.27 75.72,283.77 75.43,280.87 74.93,278.59 74.14,276.39 73.32,274.85 72.29,273.43 71.07,272.18 69.68,271.12 68.15,270.27 65.97,269.44 63.70,268.91 60.80,268.61 60.22,268.59" via=":34_5_0" dir="r" state="M"/>
    <connection from="69684" to="69681" fromLane="0" toLane="0" contPos="-4.00" shape="75.68,287.27 76.78,271.60 78.32,254.92 78.88,249.72" via=":34_6_0" dir="s" state="M"/>
    <connection from="69685" to="69625" fromLane="0" toLane="0" contPos="-4.00" shape="78.84,293.24 78.78,294.37 78.73,297.83 78.92,301.24 79.24,303.43 79.76,305.56 80.10,306.53 80.51,307.46 81.01,308.30 81.58,309.04 82.21,309.65 82.92,310.13 83.71,310.47 84.57,310.69 85.55,310.77" via=":33_2_0" dir="r" state="m"/>