<routes>
	<vehicle depart="0.1" departLane="0" departPos="15.15641256568751" departSpeed="1.964392" id="39" type="bicycle">
		<route edges=":33_2 69625 69622"/>
	</vehicle>
	<vehicle depart="0.1" departLane="0" departPos="57.887738367997" departSpeed="0.45238138" id="335" type="bus">
		<route edges="69623 69626"/>
	</vehicle>
	<vehicle depart="0.1" departLane="0" departPos="25.953204558936186" departSpeed="9.5295952" id="32" type="passenger">
		<route edges=":32_3 69068"/>
	</vehicle>
	<vehicle depart="0.1" departLane="0" departPos="70.2890605012951" departSpeed="1.1256923" id="313" type="passenger">
		<route edges="69623 69068"/>
	</vehicle>
	<vehicle depart="0.1" departLane="0" departPos="18.693597973301387" departSpeed="0.039641641" id="314" type="passenger">
		<route edges=":33_0 69629"/>
	</vehicle>
	<vehicle depart="0.1" departLane="0" departPos="49.80703774197154" departSpeed="0.053274712" id="316" type="passenger">
		<route edges="69069 69622"/>
	</vehicle>
	<vehicle depart="0.1" departLane="0" departPos="65.20693404525969" departSpeed="0.33147024" id="328" type="passenger">
		<route edges="69623 69626"/>
	</vehicle>
	<vehicle depart="0.1" departLane="0" departPos="4.93099946626853" departSpeed="7.3318371" id="350" type="passenger">
		<route edges=":32_2 69622"/>
	</vehicle>
	<vehicle depart="0.1" departLane="0" departPos="63.637972827557206" departSpeed="7.5812064" id="354" type="passenger">
		<route edges="69628 69625"/>
	</vehicle>
	<vehicle depart="0.1" departLane="0" departPos="4.443630586391162" departSpeed="0.17349503" id="325" type="motorcycle">
		<route edges=":32_0 69068"/>
	</vehicle>
</routes>
