<!-- generated on Tue Feb  9 22:12:37 2021 by Eclipse SUMO netconvert Version 1.8.0
<configuration xmlns:xsi="http://www.w3.org/2001/XMLSchema-instance" xsi:noNamespaceSchemaLocation="http://sumo.dlr.de/xsd/netconvertConfiguration.xsd">

    <input>
        <node-files value="./converted_scenarios/scenario-factory/ITA_CarpiCentro-6_2_I-1-1/ITA_CarpiCentro-6_2_I-1-1.nod.xml"/>
        <edge-files value="./converted_scenarios/scenario-factory/ITA_CarpiCentro-6_2_I-1-1/ITA_CarpiCentro-6_2_I-1-1.edg.xml"/>
        <connection-files value="./converted_scenarios/scenario-factory/ITA_CarpiCentro-6_2_I-1-1/ITA_CarpiCentro-6_2_I-1-1.con.xml"/>
        <tllogic-files value="./converted_scenarios/scenario-factory/ITA_CarpiCentro-6_2_I-1-1/ITA_CarpiCentro-6_2_I-1-1.tll.xml"/>
        <type-files value="/home/zen/commonroad-interactive-benchmarks/install/commonroad-map-tool/crmapconverter/sumo_map/templates/DEU.typ.xml"/>
    </input>

    <output>
        <output-file value="./converted_scenarios/scenario-factory/ITA_CarpiCentro-6_2_I-1-1/ITA_CarpiCentro-6_2_I-1-1.net.xml"/>
    </output>

    <processing>
        <geometry.remove.keep-edges.explicit value="true"/>
        <geometry.avoid-overlap value="true"/>
        <offset.disable-normalization value="true"/>
    </processing>

    <junctions>
        <no-turnarounds value="true"/>
        <junctions.internal-link-detail value="20"/>
    </junctions>

    <report>
        <aggregate-warnings value="5"/>
    </report>

    <random_number>
        <seed value="1234"/>
    </random_number>

</configuration>
--><net xmlns:xsi="http://www.w3.org/2001/XMLSchema-instance" version="1.6" junctionCornerDetail="5" junctionLinkDetail="20" limitTurnSpeed="5.50" xsi:noNamespaceSchemaLocation="http://sumo.dlr.de/xsd/net_file.xsd">

    <location netOffset="0.00,0.00" convBoundary="-589.53,-570.68,-249.39,-253.78" origBoundary="-589.53,-570.68,-249.39,-253.78" projParameter="!"/>

    <type id="highway.bridleway" priority="1" speed="2.78" allow="pedestrian" oneway="1" width="2.00"/>
    <type id="highway.bus_guideway" priority="1" speed="27.78" allow="bus" oneway="1"/>
    <type id="highway.cycleway" priority="1" speed="8.33" allow="bicycle" oneway="0" width="1.00"/>
    <type id="highway.footway" priority="1" speed="2.78" allow="pedestrian" oneway="1" width="2.00"/>
    <type id="highway.ford" priority="1" speed="2.78" allow="army" oneway="0"/>
    <type id="highway.living_street" priority="2" speed="2.78" disallow="tram rail_urban rail rail_electric rail_fast ship" oneway="0"/>
    <type id="highway.motorway" priority="14" speed="39.44" allow="private emergency authority army vip passenger hov taxi bus coach delivery truck trailer motorcycle evehicle custom1 custom2" oneway="1"/>
    <type id="highway.motorway_link" priority="9" speed="22.22" allow="private emergency authority army vip passenger hov taxi bus coach delivery truck trailer motorcycle evehicle custom1 custom2" oneway="1"/>
    <type id="highway.path" priority="1" speed="2.78" allow="pedestrian bicycle" oneway="0" width="2.00"/>
    <type id="highway.pedestrian" priority="1" speed="2.78" allow="pedestrian" oneway="1" width="2.00"/>
    <type id="highway.primary" priority="12" speed="27.78" disallow="pedestrian tram rail_urban rail rail_electric rail_fast ship" oneway="0"/>
    <type id="highway.primary_link" priority="7" speed="22.22" disallow="pedestrian tram rail_urban rail rail_electric rail_fast ship" oneway="0"/>
    <type id="highway.raceway" priority="15" speed="83.33" allow="vip" oneway="0"/>
    <type id="highway.residential" priority="3" speed="13.89" disallow="pedestrian tram rail_urban rail rail_electric rail_fast ship" oneway="0"/>
    <type id="highway.secondary" priority="11" speed="27.78" disallow="pedestrian tram rail_urban rail rail_electric rail_fast ship" oneway="0"/>
    <type id="highway.secondary_link" priority="6" speed="22.22" disallow="pedestrian tram rail_urban rail rail_electric rail_fast ship" oneway="0"/>
    <type id="highway.service" priority="1" speed="5.56" allow="pedestrian delivery bicycle" oneway="0"/>
    <type id="highway.stairs" priority="1" speed="1.39" allow="pedestrian" oneway="1" width="2.00"/>
    <type id="highway.step" priority="1" speed="1.39" allow="pedestrian" oneway="1" width="2.00"/>
    <type id="highway.steps" priority="1" speed="1.39" allow="pedestrian" oneway="1" width="2.00"/>
    <type id="highway.tertiary" priority="10" speed="22.22" disallow="pedestrian tram rail_urban rail rail_electric rail_fast ship" oneway="0"/>
    <type id="highway.tertiary_link" priority="5" speed="22.22" disallow="pedestrian tram rail_urban rail rail_electric rail_fast ship" oneway="0"/>
    <type id="highway.track" priority="1" speed="5.56" allow="pedestrian motorcycle moped bicycle" oneway="0"/>
    <type id="highway.trunk" priority="13" speed="27.78" disallow="pedestrian bicycle tram rail_urban rail rail_electric rail_fast ship" oneway="0"/>
    <type id="highway.trunk_link" priority="8" speed="22.22" disallow="pedestrian bicycle tram rail_urban rail rail_electric rail_fast ship" oneway="0"/>
    <type id="highway.unclassified" priority="4" speed="13.89" disallow="pedestrian tram rail_urban rail rail_electric rail_fast ship" oneway="0"/>
    <type id="highway.unsurfaced" priority="1" speed="8.33" disallow="tram rail_urban rail rail_electric rail_fast ship" oneway="0"/>
    <type id="railway.highspeed" priority="21" speed="69.44" allow="rail_fast" oneway="1"/>
    <type id="railway.light_rail" priority="19" speed="27.78" allow="rail_urban" oneway="1"/>
    <type id="railway.preserved" priority="16" speed="27.78" allow="rail" oneway="1"/>
    <type id="railway.rail" priority="20" speed="44.44" allow="rail" oneway="1"/>
    <type id="railway.subway" priority="18" speed="27.78" allow="rail_urban" oneway="1"/>
    <type id="railway.tram" priority="17" speed="13.89" allow="tram" oneway="1"/>

    <edge id=":51_0" function="internal">
        <lane id=":51_0_0" index="0" disallow="pedestrian tram rail_urban rail rail_electric rail_fast ship" speed="36.11" length="2.99" width="3.50" shape="-407.09,-280.43 -405.66,-277.80"/>
    </edge>
    <edge id=":58_0" function="internal">
        <lane id=":58_0_0" index="0" disallow="pedestrian tram rail_urban rail rail_electric rail_fast ship" speed="36.11" length="2.99" width="3.50" shape="-408.73,-276.12 -410.16,-278.75"/>
    </edge>
    <edge id=":87_0" function="internal">
        <lane id=":87_0_0" index="0" disallow="pedestrian tram rail_urban rail rail_electric rail_fast ship" speed="11.88" length="30.66" width="3.50" shape="-334.88,-397.47 -336.54,-400.28 -337.82,-402.06 -339.26,-403.71 -340.88,-405.19 -342.66,-406.46 -344.61,-407.47 -346.69,-408.17 -348.84,-408.56 -351.03,-408.65 -353.22,-408.48 -355.37,-408.08 -357.48,-407.50 -360.56,-406.33"/>
    </edge>
    <edge id=":87_1" function="internal">
        <lane id=":87_1_0" index="0" disallow="pedestrian tram rail_urban rail rail_electric rail_fast ship" speed="36.11" length="40.07" width="3.50" shape="-334.88,-397.47 -344.15,-415.21 -353.43,-432.99"/>
    </edge>
    <edge id=":87_2" function="internal">
        <lane id=":87_2_0" index="0" disallow="pedestrian tram rail_urban rail rail_electric rail_fast ship" speed="12.01" length="34.61" width="3.50" shape="-334.88,-397.47 -336.47,-400.94 -337.33,-403.42 -337.93,-405.99 -338.20,-408.63 -338.20,-410.02 -338.07,-411.39 -337.83,-412.75 -337.45,-414.08 -336.96,-415.38 -336.34,-416.62 -335.62,-417.79 -334.79,-418.91 -332.97,-420.85 -330.92,-422.54 -328.72,-423.98 -325.30,-425.75"/>
    </edge>
    <edge id=":87_3" function="internal">
        <lane id=":87_3_0" index="0" disallow="pedestrian tram rail_urban rail rail_electric rail_fast ship" speed="10.99" length="28.80" width="3.50" shape="-323.86,-422.56 -326.81,-421.03 -328.67,-419.81 -330.38,-418.41 -331.89,-416.79 -332.55,-415.90 -333.13,-414.95 -333.63,-413.96 -334.02,-412.92 -334.32,-411.85 -334.51,-410.76 -334.61,-409.66 -334.62,-408.55 -334.39,-406.35 -333.88,-404.19 -333.16,-402.09 -331.78,-399.09"/>
    </edge>
    <edge id=":87_4" function="internal">
        <lane id=":87_4_0" index="0" disallow="pedestrian tram rail_urban rail rail_electric rail_fast ship" speed="36.11" length="40.13" width="3.50" shape="-323.86,-422.56 -353.01,-409.62 -360.56,-406.33"/>
    </edge>
    <edge id=":87_5" function="internal">
        <lane id=":87_5_0" index="0" disallow="pedestrian tram rail_urban rail rail_electric rail_fast ship" speed="12.69" length="35.52" width="3.50" shape="-323.86,-422.56 -327.40,-421.16 -329.83,-420.46 -332.33,-419.99 -334.85,-419.79 -337.38,-419.92 -339.87,-420.40 -342.26,-421.25 -344.49,-422.45 -346.53,-423.95 -348.38,-425.69 -350.03,-427.62 -351.50,-429.68 -353.43,-432.99"/>
    </edge>
    <edge id=":87_6" function="internal">
        <lane id=":87_6_0" index="0" disallow="pedestrian tram rail_urban rail rail_electric rail_fast ship" speed="11.72" length="30.16" width="3.50" shape="-350.33,-434.61 -348.63,-431.69 -347.36,-429.91 -345.95,-428.26 -344.39,-426.79 -342.69,-425.54 -340.86,-424.55 -338.90,-423.85 -336.86,-423.45 -334.75,-423.35 -332.63,-423.51 -330.50,-423.92 -328.41,-424.52 -325.30,-425.75"/>
    </edge>
    <edge id=":87_7" function="internal">
        <lane id=":87_7_0" index="0" disallow="pedestrian tram rail_urban rail rail_electric rail_fast ship" speed="36.11" length="40.07" width="3.50" shape="-350.33,-434.61 -341.04,-416.83 -331.78,-399.09"/>
    </edge>
    <edge id=":87_8" function="internal">
        <lane id=":87_8_0" index="0" disallow="pedestrian tram rail_urban rail rail_electric rail_fast ship" speed="12.02" length="35.12" width="3.50" shape="-350.33,-434.61 -348.63,-430.90 -347.77,-428.35 -347.18,-425.71 -346.95,-423.02 -346.99,-421.67 -347.15,-420.33 -347.43,-419.01 -347.84,-417.73 -348.37,-416.48 -349.01,-415.30 -349.76,-414.18 -350.60,-413.12 -352.51,-411.21 -354.64,-409.56 -356.93,-408.13 -360.56,-406.33"/>
    </edge>
    <edge id=":87_9" function="internal">
        <lane id=":87_9_0" index="0" disallow="pedestrian tram rail_urban rail rail_electric rail_fast ship" speed="11.01" length="29.25" width="3.50" shape="-361.95,-409.54 -358.78,-411.11 -356.84,-412.32 -355.04,-413.71 -353.44,-415.31 -352.78,-416.14 -352.18,-417.04 -351.67,-417.98 -351.25,-418.96 -350.93,-419.98 -350.70,-421.03 -350.58,-422.10 -350.54,-423.15 -350.73,-425.39 -351.22,-427.60 -351.95,-429.76 -353.43,-432.99"/>
    </edge>
    <edge id=":87_10" function="internal">
        <lane id=":87_10_0" index="0" disallow="pedestrian tram rail_urban rail rail_electric rail_fast ship" speed="36.11" length="40.07" width="3.50" shape="-361.95,-409.54 -354.42,-412.82 -325.30,-425.75"/>
    </edge>
    <edge id=":87_11" function="internal">
        <lane id=":87_11_0" index="0" disallow="pedestrian tram rail_urban rail rail_electric rail_fast ship" speed="12.84" length="35.97" width="3.50" shape="-361.95,-409.54 -358.45,-410.87 -356.00,-411.55 -353.49,-412.01 -350.92,-412.21 -348.31,-412.09 -345.73,-411.62 -343.23,-410.77 -340.88,-409.56 -338.75,-408.04 -336.84,-406.29 -335.16,-404.36 -333.67,-402.30 -331.78,-399.09"/>
    </edge>
    <edge id=":88_0" function="internal">
        <lane id=":88_0_0" index="0" disallow="pedestrian tram rail_urban rail rail_electric rail_fast ship" speed="11.48" length="29.29" width="3.50" shape="-432.50,-476.76 -434.08,-479.58 -435.30,-481.38 -436.66,-483.07 -438.19,-484.61 -439.89,-485.96 -441.77,-487.05 -442.76,-487.49 -443.79,-487.84 -444.84,-488.11 -446.99,-488.39 -449.16,-488.35 -451.31,-488.03 -453.41,-487.48 -455.45,-486.74 -456.45,-486.31"/>
    </edge>
    <edge id=":88_1" function="internal">
        <lane id=":88_1_0" index="0" disallow="pedestrian tram rail_urban rail rail_electric rail_fast ship" speed="11.96" length="35.03" width="3.50" shape="-432.50,-476.76 -434.05,-480.30 -434.87,-482.83 -435.42,-485.46 -435.63,-488.14 -435.57,-489.56 -435.40,-490.94 -435.09,-492.31 -434.65,-493.65 -434.09,-494.94 -433.40,-496.16 -432.61,-497.31 -431.71,-498.40 -429.77,-500.26 -427.61,-501.86 -425.32,-503.21 -421.82,-504.82"/>
    </edge>
    <edge id=":88_2" function="internal">
        <lane id=":88_2_0" index="0" disallow="pedestrian tram rail_urban rail rail_electric rail_fast ship" speed="10.95" length="29.15" width="3.50" shape="-420.49,-501.58 -423.55,-500.18 -425.48,-499.04 -427.29,-497.71 -428.91,-496.15 -429.62,-495.29 -430.26,-494.36 -430.81,-493.38 -431.26,-492.36 -431.61,-491.29 -431.85,-490.19 -431.99,-489.08 -432.04,-487.96 -431.87,-485.72 -431.41,-483.53 -430.72,-481.39 -429.38,-478.33"/>
    </edge>
    <edge id=":88_3" function="internal">
        <lane id=":88_3_0" index="0" disallow="pedestrian tram rail_urban rail rail_electric rail_fast ship" speed="36.11" length="39.07" width="3.50" shape="-420.49,-501.58 -437.61,-494.55 -453.64,-487.57 -456.45,-486.31"/>
    </edge>
    <edge id=":88_4" function="internal">
        <lane id=":88_4_0" index="0" disallow="pedestrian tram rail_urban rail rail_electric rail_fast ship" speed="36.11" length="39.19" width="3.50" shape="-457.89,-489.50 -455.06,-490.77 -438.97,-497.77 -421.82,-504.82"/>
    </edge>
    <edge id=":88_5" function="internal">
        <lane id=":88_5_0" index="0" disallow="pedestrian tram rail_urban rail rail_electric rail_fast ship" speed="12.46" length="34.71" width="3.50" shape="-457.89,-489.50 -456.73,-490.00 -454.37,-490.85 -451.91,-491.50 -449.36,-491.89 -446.74,-491.95 -444.15,-491.63 -442.83,-491.30 -441.57,-490.88 -440.32,-490.34 -438.07,-489.04 -436.01,-487.43 -434.20,-485.61 -432.59,-483.64 -431.18,-481.55 -429.38,-478.33"/>
    </edge>
    <edge id=":89_0" function="internal">
        <lane id=":89_0_0" index="0" disallow="pedestrian tram rail_urban rail rail_electric rail_fast ship" speed="11.94" length="30.63" width="3.50" shape="-406.39,-365.58 -408.14,-368.48 -409.47,-370.23 -410.95,-371.82 -412.59,-373.22 -414.39,-374.37 -416.31,-375.24 -418.35,-375.82 -420.47,-376.11 -422.63,-376.13 -424.81,-375.90 -426.99,-375.46 -429.13,-374.85 -432.32,-373.64"/>
    </edge>
    <edge id=":89_1" function="internal">
        <lane id=":89_1_0" index="0" disallow="pedestrian tram rail_urban rail rail_electric rail_fast ship" speed="36.11" length="39.99" width="3.50" shape="-406.39,-365.58 -407.85,-368.30 -416.78,-384.45 -426.03,-400.41"/>
    </edge>
    <edge id=":89_2" function="internal">
        <lane id=":89_2_0" index="0" disallow="pedestrian tram rail_urban rail rail_electric rail_fast ship" speed="11.23" length="29.24" width="3.50" shape="-406.39,-365.58 -406.98,-366.73 -408.53,-370.12 -409.39,-372.52 -410.06,-375.01 -410.44,-377.58 -410.51,-378.94 -410.46,-380.29 -410.28,-381.66 -409.95,-383.01 -409.47,-384.33 -408.83,-385.58 -408.05,-386.76 -407.15,-387.82 -406.15,-388.78 -405.05,-389.64 -402.81,-390.98"/>
    </edge>
    <edge id=":89_3" function="internal">
        <lane id=":89_3_0" index="0" disallow="pedestrian tram rail_urban rail rail_electric rail_fast ship" speed="10.09" length="23.61" width="3.50" shape="-401.21,-387.87 -403.04,-386.76 -403.87,-386.09 -404.63,-385.33 -405.30,-384.49 -405.87,-383.58 -406.31,-382.60 -406.64,-381.58 -406.84,-380.53 -406.94,-379.46 -406.94,-378.39 -406.86,-377.31 -406.49,-375.20 -405.90,-373.14 -405.15,-371.12 -403.81,-368.20 -403.31,-367.24"/>
    </edge>
    <edge id=":89_4" function="internal">
        <lane id=":89_4_0" index="0" disallow="pedestrian tram rail_urban rail rail_electric rail_fast ship" speed="36.11" length="34.21" width="3.50" shape="-401.21,-387.87 -404.93,-386.03 -416.20,-380.73 -432.32,-373.64"/>
    </edge>
    <edge id=":89_5" function="internal">
        <lane id=":89_5_0" index="0" disallow="pedestrian tram rail_urban rail rail_electric rail_fast ship" speed="11.97" length="31.05" width="3.50" shape="-401.21,-387.87 -403.61,-386.88 -404.94,-386.52 -406.28,-386.28 -407.64,-386.18 -409.01,-386.23 -410.36,-386.41 -411.68,-386.74 -412.96,-387.18 -414.20,-387.75 -416.41,-389.09 -418.42,-390.69 -420.23,-392.46 -421.87,-394.36 -424.07,-397.32 -426.03,-400.41"/>
    </edge>
    <edge id=":89_6" function="internal">
        <lane id=":89_6_0" index="0" disallow="pedestrian tram rail_urban rail rail_electric rail_fast ship" speed="10.87" length="25.73" width="3.50" shape="-423.02,-402.19 -421.30,-399.48 -419.40,-396.87 -418.01,-395.23 -416.51,-393.70 -414.86,-392.32 -413.06,-391.15 -412.10,-390.67 -411.10,-390.28 -410.07,-389.98 -409.01,-389.79 -407.94,-389.72 -406.87,-389.77 -405.81,-389.93 -404.77,-390.19 -402.81,-390.98"/>
    </edge>
    <edge id=":89_7" function="internal">
        <lane id=":89_7_0" index="0" disallow="pedestrian tram rail_urban rail rail_electric rail_fast ship" speed="36.11" length="40.13" width="3.50" shape="-423.02,-402.19 -413.73,-386.18 -404.77,-369.96 -403.31,-367.24"/>
    </edge>
    <edge id=":89_8" function="internal">
        <lane id=":89_8_0" index="0" disallow="pedestrian tram rail_urban rail rail_electric rail_fast ship" speed="11.85" length="35.46" width="3.50" shape="-423.02,-402.19 -421.76,-399.90 -420.66,-397.49 -419.78,-394.96 -419.20,-392.33 -419.04,-390.92 -419.00,-389.52 -419.09,-388.11 -419.31,-386.70 -419.68,-385.32 -420.20,-383.98 -420.84,-382.71 -421.60,-381.52 -422.45,-380.41 -423.39,-379.38 -424.41,-378.42 -426.52,-376.78 -428.80,-375.37 -432.32,-373.64"/>
    </edge>
    <edge id=":89_9" function="internal">
        <lane id=":89_9_0" index="0" disallow="pedestrian tram rail_urban rail rail_electric rail_fast ship" speed="10.82" length="29.38" width="3.50" shape="-433.70,-376.86 -430.65,-378.35 -428.73,-379.54 -426.95,-380.93 -426.13,-381.70 -425.37,-382.54 -424.68,-383.43 -424.07,-384.39 -423.56,-385.39 -423.16,-386.45 -422.86,-387.54 -422.68,-388.66 -422.61,-389.79 -422.65,-390.92 -422.77,-392.04 -423.26,-394.25 -424.00,-396.38 -424.94,-398.44 -426.03,-400.41"/>
    </edge>
    <edge id=":89_10" function="internal">
        <lane id=":89_10_0" index="0" disallow="pedestrian tram rail_urban rail rail_electric rail_fast ship" speed="36.11" length="33.97" width="3.50" shape="-433.70,-376.86 -417.66,-383.91 -406.47,-389.17 -402.81,-390.98"/>
    </edge>
    <edge id=":89_11" function="internal">
        <lane id=":89_11_0" index="0" disallow="pedestrian tram rail_urban rail rail_electric rail_fast ship" speed="12.89" length="35.88" width="3.50" shape="-433.70,-376.86 -430.10,-378.21 -427.64,-378.92 -425.13,-379.42 -422.58,-379.68 -420.01,-379.65 -417.48,-379.29 -415.02,-378.58 -412.69,-377.51 -410.54,-376.12 -408.59,-374.46 -406.85,-372.58 -405.30,-370.53 -403.31,-367.24"/>
    </edge>
    <edge id=":90_0" function="internal">
        <lane id=":90_0_0" index="0" disallow="pedestrian tram rail_urban rail rail_electric rail_fast ship" speed="10.51" length="24.88" width="3.50" shape="-381.84,-376.85 -383.46,-379.68 -385.27,-382.37 -386.62,-384.07 -388.12,-385.63 -389.77,-387.03 -390.67,-387.64 -391.61,-388.17 -392.60,-388.61 -393.63,-388.94 -394.69,-389.16 -395.77,-389.25 -396.85,-389.22 -397.92,-389.07 -398.97,-388.80 -400.95,-388.00"/>
    </edge>
    <edge id=":90_1" function="internal">
        <lane id=":90_1_0" index="0" disallow="pedestrian tram rail_urban rail rail_electric rail_fast ship" speed="36.11" length="39.33" width="3.50" shape="-381.84,-376.85 -388.61,-389.69 -399.91,-411.78"/>
    </edge>
    <edge id=":90_2" function="internal">
        <lane id=":90_2_0" index="0" disallow="pedestrian tram rail_urban rail rail_electric rail_fast ship" speed="11.98" length="35.03" width="3.50" shape="-381.84,-376.85 -383.56,-380.52 -384.46,-383.06 -385.09,-385.68 -385.38,-388.36 -385.37,-389.70 -385.25,-391.04 -385.00,-392.37 -384.63,-393.66 -384.13,-394.92 -383.52,-396.12 -382.80,-397.25 -381.98,-398.32 -380.10,-400.26 -377.99,-401.92 -375.71,-403.36 -372.09,-405.16"/>
    </edge>
    <edge id=":90_3" function="internal">
        <lane id=":90_3_0" index="0" disallow="pedestrian tram rail_urban rail rail_electric rail_fast ship" speed="10.96" length="29.14" width="3.50" shape="-370.70,-401.95 -373.85,-400.39 -375.78,-399.17 -377.55,-397.77 -379.11,-396.16 -379.75,-395.32 -380.32,-394.42 -380.81,-393.47 -381.20,-392.48 -381.49,-391.46 -381.68,-390.41 -381.78,-389.34 -381.79,-388.28 -381.55,-386.04 -381.01,-383.85 -380.25,-381.69 -378.75,-378.50"/>
    </edge>
    <edge id=":90_4" function="internal">
        <lane id=":90_4_0" index="0" disallow="pedestrian tram rail_urban rail rail_electric rail_fast ship" speed="36.11" length="33.32" width="3.50" shape="-370.70,-401.95 -374.52,-400.28 -389.73,-393.42 -400.95,-388.00"/>
    </edge>
    <edge id=":90_5" function="internal">
        <lane id=":90_5_0" index="0" disallow="pedestrian tram rail_urban rail rail_electric rail_fast ship" speed="12.56" length="34.83" width="3.50" shape="-370.70,-401.95 -374.20,-400.62 -376.64,-399.94 -379.15,-399.47 -381.73,-399.26 -384.35,-399.38 -386.91,-399.87 -388.22,-400.27 -389.45,-400.77 -390.67,-401.38 -392.85,-402.80 -394.83,-404.52 -396.55,-406.45 -398.05,-408.53 -399.91,-411.78"/>
    </edge>
    <edge id=":90_6" function="internal">
        <lane id=":90_6_0" index="0" disallow="pedestrian tram rail_urban rail rail_electric rail_fast ship" speed="11.59" length="29.48" width="3.50" shape="-396.79,-413.37 -395.17,-410.53 -393.89,-408.76 -392.43,-407.13 -390.78,-405.70 -388.95,-404.52 -387.97,-404.03 -386.95,-403.63 -385.91,-403.31 -383.76,-402.91 -381.58,-402.82 -379.40,-403.00 -377.26,-403.40 -375.15,-404.00 -372.09,-405.16"/>
    </edge>
    <edge id=":90_7" function="internal">
        <lane id=":90_7_0" index="0" disallow="pedestrian tram rail_urban rail rail_electric rail_fast ship" speed="36.11" length="39.26" width="3.50" shape="-396.79,-413.37 -385.50,-391.30 -378.75,-378.50"/>
    </edge>
    <edge id=":90_8" function="internal">
        <lane id=":90_8_0" index="0" disallow="pedestrian tram rail_urban rail rail_electric rail_fast ship" speed="11.33" length="29.16" width="3.50" shape="-396.79,-413.37 -396.24,-412.23 -394.79,-408.79 -393.99,-406.37 -393.40,-403.86 -393.09,-401.29 -393.07,-399.92 -393.16,-398.57 -393.38,-397.22 -393.74,-395.88 -394.25,-394.58 -394.91,-393.34 -395.70,-392.19 -396.61,-391.14 -397.61,-390.20 -398.71,-389.35 -400.95,-388.00"/>
    </edge>
    <edge id=":90_9" function="internal">
        <lane id=":90_9_0" index="0" disallow="pedestrian tram rail_urban rail rail_electric rail_fast ship" speed="10.18" length="23.62" width="3.50" shape="-402.55,-391.11 -400.71,-392.23 -399.87,-392.89 -399.10,-393.65 -398.42,-394.48 -397.84,-395.38 -397.37,-396.35 -397.02,-397.36 -396.78,-398.41 -396.65,-399.48 -396.61,-400.55 -396.66,-401.63 -396.97,-403.75 -397.49,-405.84 -398.19,-407.87 -399.45,-410.84 -399.91,-411.78"/>
    </edge>
    <edge id=":90_10" function="internal">
        <lane id=":90_10_0" index="0" disallow="pedestrian tram rail_urban rail rail_electric rail_fast ship" speed="36.11" length="33.55" width="3.50" shape="-402.55,-391.11 -391.23,-396.59 -375.93,-403.48 -372.09,-405.16"/>
    </edge>
    <edge id=":90_11" function="internal">
        <lane id=":90_11_0" index="0" disallow="pedestrian tram rail_urban rail rail_electric rail_fast ship" speed="11.64" length="30.37" width="3.50" shape="-402.55,-391.12 -400.11,-392.12 -398.76,-392.49 -397.40,-392.72 -396.00,-392.81 -394.61,-392.74 -393.22,-392.51 -391.88,-392.14 -390.60,-391.63 -389.39,-391.01 -388.22,-390.28 -386.19,-388.65 -384.36,-386.81 -382.74,-384.84 -380.62,-381.74 -378.75,-378.50"/>
    </edge>
    <edge id=":91_0" function="internal">
        <lane id=":91_0_0" index="0" disallow="pedestrian tram rail_urban rail rail_electric rail_fast ship" speed="11.57" length="29.49" width="3.50" shape="-284.56,-421.23 -286.29,-424.18 -287.59,-425.95 -289.06,-427.56 -290.69,-428.96 -292.51,-430.11 -293.42,-430.55 -294.40,-430.93 -295.38,-431.23 -297.49,-431.61 -299.63,-431.67 -301.80,-431.47 -303.96,-431.03 -306.10,-430.40 -309.26,-429.14"/>
    </edge>
    <edge id=":91_1" function="internal">
        <lane id=":91_1_0" index="0" disallow="pedestrian tram rail_urban rail rail_electric rail_fast ship" speed="36.11" length="38.83" width="3.50" shape="-284.56,-421.23 -293.48,-438.50 -302.38,-455.73"/>
    </edge>
    <edge id=":91_2" function="internal">
        <lane id=":91_2_0" index="0" disallow="pedestrian tram rail_urban rail rail_electric rail_fast ship" speed="36.11" length="38.79" width="3.50" shape="-299.27,-457.34 -290.37,-440.10 -281.47,-422.87"/>
    </edge>
    <edge id=":91_3" function="internal">
        <lane id=":91_3_0" index="0" disallow="pedestrian tram rail_urban rail rail_electric rail_fast ship" speed="12.03" length="34.65" width="3.50" shape="-299.27,-457.34 -297.69,-453.83 -296.85,-451.33 -296.29,-448.74 -296.06,-446.09 -296.10,-444.69 -296.26,-443.32 -296.54,-441.97 -296.95,-440.64 -297.49,-439.36 -298.13,-438.14 -298.88,-436.99 -299.73,-435.89 -301.58,-433.98 -303.64,-432.32 -305.84,-430.90 -309.26,-429.14"/>
    </edge>
    <edge id=":91_4" function="internal">
        <lane id=":91_4_0" index="0" disallow="pedestrian tram rail_urban rail rail_electric rail_fast ship" speed="11.01" length="28.85" width="3.50" shape="-310.70,-432.33 -307.74,-433.85 -305.88,-435.06 -304.14,-436.45 -302.60,-438.04 -301.92,-438.92 -301.32,-439.85 -300.79,-440.83 -300.37,-441.85 -300.04,-442.91 -299.81,-444.00 -299.68,-445.10 -299.65,-446.21 -299.83,-448.42 -300.31,-450.59 -301.01,-452.70 -302.38,-455.73"/>
    </edge>
    <edge id=":91_5" function="internal">
        <lane id=":91_5_0" index="0" disallow="pedestrian tram rail_urban rail rail_electric rail_fast ship" speed="12.54" length="34.83" width="3.50" shape="-310.70,-432.33 -307.10,-433.76 -304.63,-434.49 -302.10,-435.00 -299.53,-435.23 -296.95,-435.14 -294.41,-434.68 -293.18,-434.31 -291.98,-433.83 -290.82,-433.27 -288.65,-431.88 -286.69,-430.19 -284.96,-428.29 -283.43,-426.21 -281.47,-422.87"/>
    </edge>
    <edge id=":92_0" function="internal">
        <lane id=":92_0_0" index="0" disallow="pedestrian tram rail_urban rail rail_electric rail_fast ship" speed="11.80" length="29.52" width="3.50" shape="-386.02,-495.34 -387.66,-498.17 -388.91,-499.97 -390.29,-501.66 -391.83,-503.22 -393.53,-504.59 -395.40,-505.73 -397.41,-506.59 -399.53,-507.14 -401.70,-507.37 -403.89,-507.30 -406.05,-506.97 -408.17,-506.42 -410.23,-505.69"/>
    </edge>
    <edge id=":92_1" function="internal">
        <lane id=":92_1_0" index="0" disallow="pedestrian tram rail_urban rail rail_electric rail_fast ship" speed="11.29" length="30.82" width="3.50" shape="-386.02,-495.34 -386.60,-496.48 -388.13,-499.92 -388.98,-502.36 -389.62,-504.88 -389.99,-507.48 -390.04,-508.85 -389.97,-510.22 -389.77,-511.60 -389.42,-512.96 -388.92,-514.28 -388.27,-515.54 -387.47,-516.72 -386.55,-517.79 -385.53,-518.74 -384.44,-519.58 -383.28,-520.33 -380.95,-521.50"/>
    </edge>
    <edge id=":92_2" function="internal">
        <lane id=":92_2_0" index="0" disallow="pedestrian tram rail_urban rail rail_electric rail_fast ship" speed="10.18" length="24.97" width="3.50" shape="-379.55,-518.29 -381.49,-517.31 -382.40,-516.71 -383.25,-516.03 -384.02,-515.27 -384.71,-514.43 -385.29,-513.51 -385.75,-512.53 -386.10,-511.50 -386.33,-510.44 -386.44,-509.36 -386.46,-508.27 -386.39,-507.18 -386.05,-505.04 -385.48,-502.94 -384.74,-500.90 -383.41,-497.92 -382.93,-496.97"/>
    </edge>
    <edge id=":92_3" function="internal">
        <lane id=":92_3_0" index="0" disallow="pedestrian tram rail_urban rail rail_electric rail_fast ship" speed="36.11" length="33.17" width="3.50" shape="-379.55,-518.29 -401.58,-509.17 -410.23,-505.69"/>
    </edge>
    <edge id=":92_4" function="internal">
        <lane id=":92_4_0" index="0" disallow="pedestrian tram rail_urban rail rail_electric rail_fast ship" speed="36.11" length="33.06" width="3.50" shape="-411.53,-508.94 -402.90,-512.41 -380.95,-521.50"/>
    </edge>
    <edge id=":92_5" function="internal">
        <lane id=":92_5_0" index="0" disallow="pedestrian tram rail_urban rail rail_electric rail_fast ship" speed="12.76" length="34.70" width="3.50" shape="-411.53,-508.94 -409.15,-509.78 -406.69,-510.43 -404.14,-510.82 -401.54,-510.91 -398.92,-510.65 -396.36,-510.01 -393.93,-508.99 -391.68,-507.63 -389.65,-506.02 -387.84,-504.20 -386.22,-502.24 -384.78,-500.17 -382.93,-496.97"/>
    </edge>
    <edge id=":93_0" function="internal">
        <lane id=":93_0_0" index="0" disallow="pedestrian tram rail_urban rail rail_electric rail_fast ship" speed="36.11" length="39.04" width="3.50" shape="-447.63,-346.61 -455.50,-361.04 -466.06,-381.03"/>
    </edge>
    <edge id=":93_1" function="internal">
        <lane id=":93_1_0" index="0" disallow="pedestrian tram rail_urban rail rail_electric rail_fast ship" speed="11.91" length="35.08" width="3.50" shape="-447.63,-346.61 -449.33,-350.10 -450.25,-352.58 -450.92,-355.17 -451.26,-357.84 -451.27,-359.25 -451.17,-360.64 -450.93,-362.03 -450.55,-363.39 -450.05,-364.70 -449.41,-365.96 -448.67,-367.14 -447.83,-368.24 -446.90,-369.27 -445.90,-370.22 -443.82,-371.86 -441.56,-373.27 -438.07,-374.98"/>
    </edge>
    <edge id=":93_2" function="internal">
        <lane id=":93_2_0" index="0" disallow="pedestrian tram rail_urban rail rail_electric rail_fast ship" speed="10.88" length="29.12" width="3.50" shape="-436.69,-371.77 -439.71,-370.29 -441.61,-369.10 -443.37,-367.72 -444.17,-366.94 -444.92,-366.11 -445.60,-365.22 -446.20,-364.27 -446.70,-363.27 -447.11,-362.23 -447.40,-361.14 -447.59,-360.04 -447.67,-358.92 -447.66,-357.80 -447.38,-355.58 -446.82,-353.42 -446.04,-351.32 -444.56,-348.30"/>
    </edge>
    <edge id=":93_3" function="internal">