<routes>
	<vehicle depart="0.1" departLane="0" departPos="9.834493531555141" departSpeed="6.9085809" id="36" type="bicycle">
		<route edges="570"/>
	</vehicle>
	<vehicle depart="0.1" departLane="0" departPos="6.606198237903868" departSpeed="0.023762161" id="366" type="bicycle">
		<route edges="76 546"/>
	</vehicle>
	<vehicle depart="0.1" departLane="0" departPos="21.589073672506554" departSpeed="5.5694005" id="367" type="bicycle">
		<route edges="76 546"/>
	</vehicle>
	<vehicle depart="0.1" departLane="0" departPos="69.86912036533272" departSpeed="0.0" id="336" type="bus">
		<route edges="569 67"/>
	</vehicle>
	<vehicle depart="0.1" departLane="0" departPos="69.38801351995583" departSpeed="4.9284217" id="357" type="bus">
		<route edges="68 71"/>
	</vehicle>
	<vehicle depart="0.1" departLane="0" departPos="14.01155376705303" departSpeed="0.4203145" id="370" type="bus">
		<route edges="569 67"/>
	</vehicle>
	<vehicle depart="0.1" departLane="0" departPos="12.54956395311029" departSpeed="0.080480417" id="373" type="bus">
		<route edges="566 563"/>
	</vehicle>
	<vehicle depart="0.1" departLane="0" departPos="2.5" departSpeed="5.5933718" id="31" type="passenger">
		<route edges="74 546"/>
	</vehicle>
	<vehicle depart="0.1" departLane="0" departPos="9.594855833104681" departSpeed="1.7481487" id="32" type="passenger">
		<route edges="73 543"/>
	</vehicle>
	<vehicle depart="0.1" departLane="0" departPos="2.5" departSpeed="5.8720622" id="33" type="passenger">
		<route edges="542 70 570"/>
	</vehicle>
	<vehicle depart="0.1" departLane="0" departPos="37.4780982166897" departSpeed="0.0" id="37" type="passenger">
		<route edges="74 546"/>
	</vehicle>
	<vehicle depart="0.1" departLane="0" departPos="64.84577695546818" departSpeed="2.2703887" id="38" type="passenger">
		<route edges="561 73"/>
	</vehicle>
	<vehicle depart="0.1" departLane="0" departPos="15.563732262604109" departSpeed="4.950161" id="310" type="passenger">
		<route edges="74 546"/>
	</vehicle>
	<vehicle depart="0.1" departLane="0" departPos="29.877783022279054" departSpeed="0.24099823" id="311" type="passenger">
		<route edges="74 546"/>
	</vehicle>
	<vehicle depart="0.1" departLane="0" departPos="5.211668640582069" departSpeed="1.2975959" id="312" type="passenger">
		<route edges=":52_1 570"/>
	</vehicle>
	<vehicle depart="0.1" departLane="0" departPos="26.828584859757825" departSpeed="0.0" id="317" type="passenger">
		<route edges="76 546"/>
	</vehicle>
	<vehicle depart="0.1" departLane="0" departPos="46.519214016434645" departSpeed="0.0" id="320" type="passenger">
		<route edges="564 567"/>
	</vehicle>
	<vehicle depart="0.1" departLane="0" departPos="56.23246939446932" departSpeed="1.5414914" id="322" type="passenger">
		<route edges="561 73"/>
	</vehicle>
	<vehicle depart="0.1" departLane="0" departPos="12.87729266893746" departSpeed="18.461842" id="324" type="passenger">
		<route edges=":50_1 64"/>
	</vehicle>
	<vehicle depart="0.1" departLane="0" departPos="37.58019251113364" departSpeed="1.5199074" id="325" type="passenger">
		<route edges="564 567"/>
	</vehicle>
	<vehicle depart="0.1" departLane="0" departPos="14.75244831505667" departSpeed="6.6596276" id="326" type="passenger">
		<route edges=":52_5 71 543 563"/>
	</vehicle>
	<vehicle depart="0.1" departLane="0" departPos="19.73187167750589" departSpeed="0.00053315412" id="329" type="passenger">
		<route edges="76 546"/>
	</vehicle>
	<vehicle depart="0.1" departLane="0" departPos="35.575451990229276" departSpeed="2.248061" id="331" type="passenger">
		<route edges="566 563"/>
	</vehicle>
	<vehicle depart="0.1" departLane="0" departPos="55.14103159350131" departSpeed="0.0" id="332" type="passenger">
		<route edges="91 68"/>
	</vehicle>
	<vehicle depart="0.1" departLane="0" departPos="27.493613767305174" departSpeed="2.2970213" id="334" type="passenger">
		<route edges="564 567"/>
	</vehicle>
	<vehicle depart="0.1" departLane="0" departPos="8.07081262871354" departSpeed="2.6612035" id="335" type="passenger">
		<route edges="70 67 64"/>
	</vehicle>
	<vehicle depart="0.1" departLane="0" departPos="27.31807532971455" departSpeed="1.124932" id="338" type="passenger">
		<route edges="566 563"/>
	</vehicle>
	<vehicle depart="0.1" departLane="0" departPos="48.28878612390056" departSpeed="3.4680441e-05" id="340" type="passenger">
		<route edges="91 68"/>
	</vehicle>
	<vehicle depart="0.1" departLane="0" departPos="54.41280606154192" departSpeed="0.84948176" id="341" type="passenger">
		<route edges="569 67"/>
	</vehicle>
	<vehicle depart="0.1" departLane="0" departPos="33.40613945395647" departSpeed="0.28380856" id="342" type="passenger">
		<route edges="561 73"/>
	</vehicle>
	<vehicle depart="0.1" departLane="0" departPos="46.19770853454198" departSpeed="1.1717541" id="343" type="passenger">
		<route edges="569 67"/>
	</vehicle>
	<vehicle depart="0.1" departLane="0" departPos="17.841390844816207" departSpeed="2.3603341" id="344" type="passenger">
		<route edges="564 567"/>
	</vehicle>
	<vehicle depart="0.1" departLane="0" departPos="19.8716411062384" departSpeed="0.35867097" id="345" type="passenger">
		<route edges="566 563"/>
	</vehicle>
	<vehicle depart="0.1" departLane="0" departPos="32.426315633786345" departSpeed="0.13791671" id="346" type="passenger">
		<route edges="73 543"/>
	</vehicle>
	<vehicle depart="0.1" departLane="0" departPos="26.50729367833043" departSpeed="0.11727811" id="347" type="passenger">
		<route edges="561 73"/>
	</vehicle>
	<vehicle depart="0.1" departLane="0" departPos="37.827969695928054" departSpeed="1.0593656" id="349" type="passenger">
		<route edges="569 67"/>
	</vehicle>
	<vehicle depart="0.1" departLane="0" departPos="19.640091161702568" departSpeed="0.04334917" id="350" type="passenger">
		<route edges="561 73"/>
	</vehicle>
	<vehicle depart="0.1" departLane="0" departPos="18.910170567888333" departSpeed="1.2520828" id="352" type="passenger">
		<route edges="73 543"/>
	</vehicle>
	<vehicle depart="0.1" departLane="0" departPos="29.532382048306225" departSpeed="0.81216583" id="353" type="passenger">
		<route edges="569 67"/>
	</vehicle>
	<vehicle depart="0.1" departLane="0" departPos="12.513798099474005" departSpeed="0.018303524" id="355" type="passenger">
		<route edges="561 73"/>
	</vehicle>
	<vehicle depart="0.1" departLane="0" departPos="10.63822590871073" departSpeed="2.0806241" id="358" type="passenger">
		<route edges=":49_6 73 543"/>
	</vehicle>
	<vehicle depart="0.1" departLane="0" departPos="21.70674308564265" departSpeed="0.54349218" id="359" type="passenger">
		<route edges="569 67"/>
	</vehicle>
	<vehicle depart="0.1" departLane="0" departPos="12.230894530195359" departSpeed="0.0048983866" id="361" type="passenger">
		<route edges="76 546"/>
	</vehicle>
	<vehicle depart="0.1" departLane="0" departPos="34.39476250024775" departSpeed="0.0" id="362" type="passenger">
		<route edges="65 92"/>
	</vehicle>
	<vehicle depart="0.1" departLane="0" departPos="27.0971918272919" departSpeed="0.002996411" id="363" type="passenger">
		<route edges="65 68 71"/>
	</vehicle>
	<vehicle depart="0.1" departLane="0" departPos="10.440293813474025" departSpeed="0.11264708" id="368" type="passenger">
		<route edges="65 92"/>
	</vehicle>
	<vehicle depart="0.1" departLane="0" departPos="8.491936059841644" departSpeed="0.0" id="371" type="passenger">
		<route edges="545 77"/>
	</vehicle>
	<vehicle depart="0.1" departLane="0" departPos="9.063482698787489" departSpeed="2.1282891" id="372" type="passenger">
		<route edges="564 567"/>
	</vehicle>
	<vehicle depart="0.1" departLane="0" departPos="1.25" departSpeed="7.0797736" id="34" type="motorcycle">
		<route edges="543 563"/>
	</vehicle>
	<vehicle depart="0.1" departLane="0" departPos="6.787017869872591" departSpeed="7.9014474" id="330" type="motorcycle">
		<route edges="71 74 546"/>
	</vehicle>
	<vehicle depart="0.1" departLane="0" departPos="37.985996984892445" departSpeed="0.57392023" id="333" type="motorcycle">
		<route edges="561 73"/>
	</vehicle>
	<vehicle depart="0.1" departLane="0" departPos="36.76678934832166" departSpeed="0.0" id="339" type="motorcycle">
		<route edges="73 543"/>
	</vehicle>
	<vehicle depart="0.1" departLane="0" departPos="25.01032729218179" departSpeed="0.59423657" id="348" type="motorcycle">
		<route edges="73 543"/>
	</vehicle>
	<vehicle depart="0.1" departLane="0" departPos="6.279780077213261" departSpeed="5.2333676" id="30" type="truck">
		<route edges="546"/>
	</vehicle>
	<vehicle depart="0.1" departLane="0" departPos="6.012832544187335" departSpeed="2.8817259" id="315" type="truck">
		<route edges=":49_2 73"/>
	</vehicle>
	<vehicle depart="0.1" departLane="0" departPos="47.940538907082335" departSpeed="1.0352503" id="327" type="truck">
		<route edges="561 73"/>
	</vehicle>
	<vehicle depart="0.1" departLane="0" departPos="20.010136995244718" departSpeed="0.028894395" id="365" type="truck">
		<route edges="65 68"/>
	</vehicle>
</routes>
