<routes>
	<vehicle depart="0.1" departLane="0" departPos="63.64960420542549" departSpeed="6.9079378" id="37" type="bicycle">
		<route edges="89736 89749"/>
	</vehicle>
	<vehicle depart="0.1" departLane="0" departPos="20.290620185618213" departSpeed="0.67440728" id="322" type="bicycle">
		<route edges=":35_4 89596"/>
	</vehicle>
	<vehicle depart="0.1" departLane="0" departPos="12.769686802772542" departSpeed="1.7792058" id="33" type="passenger">
		<route edges=":35_7 89735"/>
	</vehicle>
	<vehicle depart="0.1" departLane="0" departPos="33.26844232108891" departSpeed="2.1482826" id="38" type="passenger">
		<route edges=":35_2 89589 89434"/>
	</vehicle>
	<vehicle depart="0.1" departLane="0" departPos="2.5" departSpeed="7.5520578" id="39" type="passenger">
		<route edges="89596 89599"/>
	</vehicle>
	<vehicle depart="0.1" departLane="0" departPos="14.031285277843235" departSpeed="0.52860971" id="319" type="passenger">
		<route edges="89750 89596"/>
	</vehicle>
	<vehicle depart="0.1" departLane="0" departPos="18.252509254437634" departSpeed="6.0632818" id="323" type="passenger">
		<route edges=":35_0 89596 89453"/>
	</vehicle>
	<vehicle depart="0.1" departLane="0" departPos="60.82005181526894" departSpeed="6.7914624" id="326" type="passenger">
		<route edges="89736 89749"/>
	</vehicle>
	<vehicle depart="0.1" departLane="0" departPos="1.25" departSpeed="7.5375178" id="320" type="motorcycle">
		<route edges=":35_3 89735"/>
	</vehicle>
</routes>
