<routes>
	<vehicle depart="0.1" departLane="0" departPos="1.249339553818987" departSpeed="0.93499733" id="37" type="bicycle">
		<route edges="39137 39140 39143"/>
	</vehicle>
	<vehicle depart="0.1" departLane="0" departPos="27.904112178512687" departSpeed="0.42494342" id="378" type="bus">
		<route edges="39447 39137"/>
	</vehicle>
	<vehicle depart="0.1" departLane="0" departPos="10.67757550098583" departSpeed="1.0226658" id="326" type="passenger">
		<route edges=":66_4 39134"/>
	</vehicle>
	<vehicle depart="0.1" departLane="0" departPos="35.85696282340334" departSpeed="3.5092749" id="333" type="passenger">
		<route edges="39447 39133"/>
	</vehicle>
	<vehicle depart="0.1" departLane="0" departPos="12.80142820493938" departSpeed="0.17007742" id="386" type="passenger">
		<route edges="39447 39137"/>
	</vehicle>
	<vehicle depart="0.1" departLane="0" departPos="17.832702148636688" departSpeed="0.58655077" id="321" type="truck">
		<route edges=":66_1 39134"/>
	</vehicle>
</routes>
