<routes>
	<vehicle depart="0.1" departLane="1" departPos="101.4390948214191" departSpeed="12.237781" id="1" type="passenger">
		<route edges="26 28 24"/>
	</vehicle>
	<vehicle depart="0.1" departLane="0" departPos="0" departSpeed="11.540338" id="2" type="passenger">
		<route edges="26 26 28 24"/>
	</vehicle>
	<vehicle depart="0.1" departLane="0" departPos="89.79468147003672" departSpeed="11.540167" id="3" type="passenger">
		<route edges="26 27 24"/>
	</vehicle>
</routes>
