<routes>
	<vehicle depart="0.1" departLane="0" departPos="27.56875173353434" departSpeed="0.96420013" id="39" type="bicycle">
		<route edges="33197 33026"/>
	</vehicle>
	<vehicle depart="0.1" departLane="0" departPos="23.03148936786767" departSpeed="10.16801" id="34" type="passenger">
		<route edges="33197 33026"/>
	</vehicle>
	<vehicle depart="0.1" departLane="0" departPos="45.01893025365113" departSpeed="0.0" id="36" type="passenger">
		<route edges="33276 33111"/>
	</vehicle>
	<vehicle depart="0.1" departLane="0" departPos="22.197456695486856" departSpeed="12.238343" id="335" type="passenger">
		<route edges=":65_0 33108 33277"/>
	</vehicle>
	<vehicle depart="0.1" departLane="0" departPos="15.995413024301556" departSpeed="1.303447" id="341" type="passenger">
		<route edges=":65_1 33026"/>
	</vehicle>
	<vehicle depart="0.1" departLane="0" departPos="6.170127787838691" departSpeed="12.515736" id="343" type="passenger">
		<route edges="33108 33111"/>
	</vehicle>
	<vehicle depart="0.1" departLane="0" departPos="22.27974858938317" departSpeed="9.2960624" id="351" type="passenger">
		<route edges=":65_3 33390 33387"/>
	</vehicle>
	<vehicle depart="0.1" departLane="0" departPos="36.03891138642973" departSpeed="7.325768" id="361" type="passenger">
		<route edges=":68_1 33197 33026"/>
	</vehicle>
</routes>
