<routes>
	<vehicle depart="0.1" departLane="0" departPos="50.043532922269215" departSpeed="1.644669" id="37" type="bicycle">
		<route edges="8828 8983"/>
	</vehicle>
	<vehicle depart="0.1" departLane="0" departPos="48.63470485568373" departSpeed="2.5358964" id="32" type="passenger">
		<route edges="8828 8983"/>
	</vehicle>
	<vehicle depart="0.1" departLane="0" departPos="28.206424749172747" departSpeed="12.542834" id="310" type="passenger">
		<route edges=":58_2 8698 8986 8829"/>
	</vehicle>
	<vehicle depart="0.1" departLane="0" departPos="17.846992582231092" departSpeed="0.24298471" id="312" type="passenger">
		<route edges=":62_1 8983"/>
	</vehicle>
	<vehicle depart="0.1" departLane="0" departPos="31.19533109819239" departSpeed="1.9116647" id="316" type="passenger">
		<route edges="8828 8983"/>
	</vehicle>
	<vehicle depart="0.1" departLane="0" departPos="63.07672866251065" departSpeed="2.2340592" id="325" type="passenger">
		<route edges="8828 8983"/>
	</vehicle>
	<vehicle depart="0.1" departLane="0" departPos="59.0263714288276" departSpeed="0.0014056677" id="331" type="passenger">
		<route edges="8984 8987"/>
	</vehicle>
	<vehicle depart="0.1" departLane="0" departPos="69.02894459951884" departSpeed="0.0" id="317" type="truck">
		<route edges="8984 8987"/>
	</vehicle>
</routes>
