<routes>
	<vehicle depart="0.1" departLane="0" departPos="65.88348516134963" departSpeed="1.9193851" id="315" type="passenger">
		<route edges="34873 34744"/>
	</vehicle>
	<vehicle depart="0.1" departLane="0" departPos="55.08884367858556" departSpeed="1.2568959" id="330" type="passenger">
		<route edges="34873 34744"/>
	</vehicle>
	<vehicle depart="0.1" departLane="0" departPos="45.21120281614288" departSpeed="0.78100951" id="332" type="passenger">
		<route edges="34873 34744"/>
	</vehicle>
	<vehicle depart="0.1" departLane="0" departPos="35.133581886632584" departSpeed="1.3856565" id="340" type="passenger">
		<route edges="34873 34744"/>
	</vehicle>
	<vehicle depart="0.1" departLane="0" departPos="23.656633622206265" departSpeed="0.67927859" id="343" type="passenger">
		<route edges="34873 34744"/>
	</vehicle>
	<vehicle depart="0.1" departLane="0" departPos="13.401297266589784" departSpeed="7.6548279" id="344" type="passenger">
		<route edges=":49_0 34744"/>
	</vehicle>
	<vehicle depart="0.1" departLane="0" departPos="2.5" departSpeed="0.37925952" id="361" type="passenger">
		<route edges="34747 34744"/>
	</vehicle>
</routes>
