<routes>
	<vehicle depart="0.1" departLane="0" departPos="61.27873127428969" departSpeed="1.3570659" id="34" type="passenger">
		<route edges="44383 44590"/>
	</vehicle>
	<vehicle depart="0.1" departLane="0" departPos="13.188553282475697" departSpeed="0.0" id="37" type="passenger">
		<route edges="44593 44384"/>
	</vehicle>
	<vehicle depart="0.1" departLane="0" departPos="51.38768179010844" departSpeed="0.88193002" id="38" type="passenger">
		<route edges="44383 44590"/>
	</vehicle>
	<vehicle depart="0.1" departLane="0" departPos="41.549303031002104" departSpeed="0.71669067" id="39" type="passenger">
		<route edges="44383 44590"/>
	</vehicle>
	<vehicle depart="0.1" departLane="0" departPos="20.690400825061136" departSpeed="0.0" id="313" type="passenger">
		<route edges="44593 44384"/>
	</vehicle>
	<vehicle depart="0.1" departLane="0" departPos="23.711546220067138" departSpeed="11.950595" id="327" type="passenger">
		<route edges=":21_8 44594 44176"/>
	</vehicle>
	<vehicle depart="0.1" departLane="0" departPos="2.5" departSpeed="11.060269" id="329" type="passenger">
		<route edges=":21_8 44594 44176"/>
	</vehicle>
	<vehicle depart="0.1" departLane="0" departPos="42.993661028104924" departSpeed="7.8352702" id="332" type="passenger">
		<route edges="44381 44590"/>
	</vehicle>
	<vehicle depart="0.1" departLane="0" departPos="21.686666878364445" departSpeed="6.6020968" id="337" type="passenger">
		<route edges="44381 44590"/>
	</vehicle>
</routes>
