<routes>
	<vehicle depart="0.1" departLane="0" departPos="62.40032802554934" departSpeed="0.0" id="35" type="passenger">
		<route edges="77026 77551"/>
	</vehicle>
	<vehicle depart="0.1" departLane="0" departPos="33.021397617350544" departSpeed="0.0" id="318" type="passenger">
		<route edges="77549 77552"/>
	</vehicle>
	<vehicle depart="0.1" departLane="0" departPos="25.520316786248298" departSpeed="0.0" id="319" type="passenger">
		<route edges="77549 77552"/>
	</vehicle>
	<vehicle depart="0.1" departLane="0" departPos="69.90167605707693" departSpeed="0.0" id="326" type="passenger">
		<route edges="77026 77551"/>
	</vehicle>
	<vehicle depart="0.1" departLane="0" departPos="16.23707469520602" departSpeed="12.788484" id="374" type="passenger">
		<route edges=":47_0 76992 77459"/>
	</vehicle>
	<vehicle depart="0.1" departLane="0" departPos="15.831209176526315" departSpeed="9.0889731" id="377" type="passenger">
		<route edges=":48_0 77551 77548"/>
	</vehicle>
	<vehicle depart="0.1" departLane="0" departPos="18.030205479358017" departSpeed="7.5172766" id="380" type="passenger">
		<route edges="77554 77551"/>
	</vehicle>
	<vehicle depart="0.1" departLane="0" departPos="8.218266717320441" departSpeed="3.402833" id="382" type="passenger">
		<route edges="77554 77027"/>
	</vehicle>
</routes>
