<routes>
	<vehicle depart="0.1" departLane="0" departPos="31.058982571025584" departSpeed="0.0050208289" id="372" type="bicycle">
		<route edges="4981 4984"/>
	</vehicle>
	<vehicle depart="0.1" departLane="0" departPos="48.63488145897433" departSpeed="3.1817358" id="318" type="passenger">
		<route edges="5768 4980"/>
	</vehicle>
	<vehicle depart="0.1" departLane="0" departPos="8.119081516324455" departSpeed="1.3272681" id="336" type="passenger">
		<route edges=":75_2 4984"/>
	</vehicle>
	<vehicle depart="0.1" departLane="0" departPos="33.49997235260915" departSpeed="1.1954855" id="344" type="passenger">
		<route edges="5768 4980"/>
	</vehicle>
	<vehicle depart="0.1" departLane="0" departPos="44.56367699651198" departSpeed="0.0" id="350" type="passenger">
		<route edges="4981 4984"/>
	</vehicle>
	<vehicle depart="0.1" departLane="0" departPos="19.597064688211088" departSpeed="1.3939098" id="353" type="passenger">
		<route edges="5768 4980"/>
	</vehicle>
	<vehicle depart="0.1" departLane="0" departPos="37.06373783187692" departSpeed="0.00026101128" id="369" type="passenger">
		<route edges="4981 4984"/>
	</vehicle>
	<vehicle depart="0.1" departLane="0" departPos="44.627085021509295" departSpeed="0.0" id="359" type="motorcycle">
		<route edges="4981 4984"/>
	</vehicle>
	<vehicle depart="0.1" departLane="0" departPos="17.11822779339625" departSpeed="1.6647787" id="340" type="truck">
		<route edges=":75_5 4984"/>
	</vehicle>
</routes>
