<routes>
	<vehicle depart="0.1" departLane="0" departPos="37.266656402516944" departSpeed="0.0" id="31" type="passenger">
		<route edges="21473 21470"/>
	</vehicle>
	<vehicle depart="0.1" departLane="0" departPos="18.26228068046066" departSpeed="12.85111" id="310" type="passenger">
		<route edges=":29_3 21474"/>
	</vehicle>
	<vehicle depart="0.1" departLane="0" departPos="10.720166188203116" departSpeed="6.1313834" id="314" type="passenger">
		<route edges="21402 21470"/>
	</vehicle>
	<vehicle depart="0.1" departLane="0" departPos="2.5" departSpeed="0.021918352" id="317" type="passenger">
		<route edges=":31_4 21293"/>
	</vehicle>
	<vehicle depart="0.1" departLane="0" departPos="24.181240963074167" departSpeed="0.012477002" id="30" type="truck">
		<route edges="21471 21401"/>
	</vehicle>
	<vehicle depart="0.1" departLane="0" departPos="47.26715352423987" departSpeed="0.0" id="320" type="truck">
		<route edges="21473 21470"/>
	</vehicle>
</routes>
