<routes>
	<vehicle depart="0.1" departLane="0" departPos="3.8628308528390622" departSpeed="3.5875147" id="37" type="bicycle">
		<route edges=":45_3 3656"/>
	</vehicle>
	<vehicle depart="0.1" departLane="0" departPos="7.574808402789375" departSpeed="6.9003502" id="39" type="bicycle">
		<route edges=":45_0 3656"/>
	</vehicle>
	<vehicle depart="0.1" departLane="0" departPos="63.619990325275396" departSpeed="4.5188624" id="31" type="passenger">
		<route edges="3655 6535"/>
	</vehicle>
	<vehicle depart="0.1" departLane="0" departPos="7.911849528993136" departSpeed="0.79082513" id="38" type="passenger">
		<route edges=":45_3 3656"/>
	</vehicle>
	<vehicle depart="0.1" departLane="0" departPos="38.770066871359894" departSpeed="1.4580673" id="311" type="passenger">
		<route edges="3655 4551"/>
	</vehicle>
	<vehicle depart="0.1" departLane="0" departPos="8.87479734609504" departSpeed="5.1138412" id="312" type="passenger">
		<route edges=":44_4 4550 6535 4006"/>
	</vehicle>
	<vehicle depart="0.1" departLane="0" departPos="43.991415660138344" departSpeed="4.1410501" id="313" type="passenger">
		<route edges="4160 4550 3656"/>
	</vehicle>
	<vehicle depart="0.1" departLane="0" departPos="33.90822546794263" departSpeed="3.178655" id="334" type="passenger">
		<route edges="4160 4554"/>
	</vehicle>
	<vehicle depart="0.1" departLane="0" departPos="24.237904949210524" departSpeed="2.578815" id="339" type="passenger">
		<route edges="4160 4550"/>
	</vehicle>
	<vehicle depart="0.1" departLane="0" departPos="19.461182309822593" departSpeed="2.863667" id="328" type="truck">
		<route edges="3655 4551"/>
	</vehicle>
</routes>
