<!-- generated on Tue Feb  9 22:08:48 2021 by Eclipse SUMO netconvert Version 1.8.0
<configuration xmlns:xsi="http://www.w3.org/2001/XMLSchema-instance" xsi:noNamespaceSchemaLocation="http://sumo.dlr.de/xsd/netconvertConfiguration.xsd">

    <input>
        <node-files value="./converted_scenarios/scenario-factory/ITA_Foggia-5_1_I-1-1/ITA_Foggia-5_1_I-1-1.nod.xml"/>
        <edge-files value="./converted_scenarios/scenario-factory/ITA_Foggia-5_1_I-1-1/ITA_Foggia-5_1_I-1-1.edg.xml"/>
        <connection-files value="./converted_scenarios/scenario-factory/ITA_Foggia-5_1_I-1-1/ITA_Foggia-5_1_I-1-1.con.xml"/>
        <tllogic-files value="./converted_scenarios/scenario-factory/ITA_Foggia-5_1_I-1-1/ITA_Foggia-5_1_I-1-1.tll.xml"/>
        <type-files value="/home/zen/commonroad-interactive-benchmarks/install/commonroad-map-tool/crmapconverter/sumo_map/templates/DEU.typ.xml"/>
    </input>

    <output>
        <output-file value="./converted_scenarios/scenario-factory/ITA_Foggia-5_1_I-1-1/ITA_Foggia-5_1_I-1-1.net.xml"/>
    </output>

    <processing>
        <geometry.remove.keep-edges.explicit value="true"/>
        <geometry.avoid-overlap value="true"/>
        <offset.disable-normalization value="true"/>
    </processing>

    <junctions>
        <no-turnarounds value="true"/>
        <junctions.internal-link-detail value="20"/>
    </junctions>

    <report>
        <aggregate-warnings value="5"/>
    </report>

    <random_number>
        <seed value="1234"/>
    </random_number>

</configuration>
--><net xmlns:xsi="http://www.w3.org/2001/XMLSchema-instance" version="1.6" junctionCornerDetail="5" junctionLinkDetail="20" limitTurnSpeed="5.50" xsi:noNamespaceSchemaLocation="http://sumo.dlr.de/xsd/net_file.xsd">

    <location netOffset="0.00,0.00" convBoundary="-207.01,712.82,155.57,971.13" origBoundary="-207.01,712.82,155.57,971.13" projParameter="!"/>

    <type id="highway.bridleway" priority="1" speed="2.78" allow="pedestrian" oneway="1" width="2.00"/>
    <type id="highway.bus_guideway" priority="1" speed="27.78" allow="bus" oneway="1"/>
    <type id="highway.cycleway" priority="1" speed="8.33" allow="bicycle" oneway="0" width="1.00"/>
    <type id="highway.footway" priority="1" speed="2.78" allow="pedestrian" oneway="1" width="2.00"/>
    <type id="highway.ford" priority="1" speed="2.78" allow="army" oneway="0"/>
    <type id="highway.living_street" priority="2" speed="2.78" disallow="tram rail_urban rail rail_electric rail_fast ship" oneway="0"/>
    <type id="highway.motorway" priority="14" speed="39.44" allow="private emergency authority army vip passenger hov taxi bus coach delivery truck trailer motorcycle evehicle custom1 custom2" oneway="1"/>
    <type id="highway.motorway_link" priority="9" speed="22.22" allow="private emergency authority army vip passenger hov taxi bus coach delivery truck trailer motorcycle evehicle custom1 custom2" oneway="1"/>
    <type id="highway.path" priority="1" speed="2.78" allow="pedestrian bicycle" oneway="0" width="2.00"/>
    <type id="highway.pedestrian" priority="1" speed="2.78" allow="pedestrian" oneway="1" width="2.00"/>
    <type id="highway.primary" priority="12" speed="27.78" disallow="pedestrian tram rail_urban rail rail_electric rail_fast ship" oneway="0"/>
    <type id="highway.primary_link" priority="7" speed="22.22" disallow="pedestrian tram rail_urban rail rail_electric rail_fast ship" oneway="0"/>
    <type id="highway.raceway" priority="15" speed="83.33" allow="vip" oneway="0"/>
    <type id="highway.residential" priority="3" speed="13.89" disallow="pedestrian tram rail_urban rail rail_electric rail_fast ship" oneway="0"/>
    <type id="highway.secondary" priority="11" speed="27.78" disallow="pedestrian tram rail_urban rail rail_electric rail_fast ship" oneway="0"/>
    <type id="highway.secondary_link" priority="6" speed="22.22" disallow="pedestrian tram rail_urban rail rail_electric rail_fast ship" oneway="0"/>
    <type id="highway.service" priority="1" speed="5.56" allow="pedestrian delivery bicycle" oneway="0"/>
    <type id="highway.stairs" priority="1" speed="1.39" allow="pedestrian" oneway="1" width="2.00"/>
    <type id="highway.step" priority="1" speed="1.39" allow="pedestrian" oneway="1" width="2.00"/>
    <type id="highway.steps" priority="1" speed="1.39" allow="pedestrian" oneway="1" width="2.00"/>
    <type id="highway.tertiary" priority="10" speed="22.22" disallow="pedestrian tram rail_urban rail rail_electric rail_fast ship" oneway="0"/>
    <type id="highway.tertiary_link" priority="5" speed="22.22" disallow="pedestrian tram rail_urban rail rail_electric rail_fast ship" oneway="0"/>
    <type id="highway.track" priority="1" speed="5.56" allow="pedestrian motorcycle moped bicycle" oneway="0"/>
    <type id="highway.trunk" priority="13" speed="27.78" disallow="pedestrian bicycle tram rail_urban rail rail_electric rail_fast ship" oneway="0"/>
    <type id="highway.trunk_link" priority="8" speed="22.22" disallow="pedestrian bicycle tram rail_urban rail rail_electric rail_fast ship" oneway="0"/>
    <type id="highway.unclassified" priority="4" speed="13.89" disallow="pedestrian tram rail_urban rail rail_electric rail_fast ship" oneway="0"/>
    <type id="highway.unsurfaced" priority="1" speed="8.33" disallow="tram rail_urban rail rail_electric rail_fast ship" oneway="0"/>
    <type id="railway.highspeed" priority="21" speed="69.44" allow="rail_fast" oneway="1"/>
    <type id="railway.light_rail" priority="19" speed="27.78" allow="rail_urban" oneway="1"/>
    <type id="railway.preserved" priority="16" speed="27.78" allow="rail" oneway="1"/>
    <type id="railway.rail" priority="20" speed="44.44" allow="rail" oneway="1"/>
    <type id="railway.subway" priority="18" speed="27.78" allow="rail_urban" oneway="1"/>
    <type id="railway.tram" priority="17" speed="13.89" allow="tram" oneway="1"/>

    <edge id=":111_0" function="internal">
        <lane id=":111_0_0" index="0" disallow="pedestrian tram rail_urban rail rail_electric rail_fast ship" speed="36.11" length="7.95" width="3.50" shape="-109.88,882.76 -102.49,879.82"/>
        <lane id=":111_0_1" index="1" disallow="pedestrian tram rail_urban rail rail_electric rail_fast ship" speed="36.11" length="7.96" width="3.50" shape="-109.88,882.76 -102.39,880.08"/>
    </edge>
    <edge id=":114_0" function="internal">
        <lane id=":114_0_0" index="0" disallow="pedestrian tram rail_urban rail rail_electric rail_fast ship" speed="15.00" length="30.78" width="3.50" shape="-35.04,878.58 -44.31,871.77 -47.14,870.25 -49.62,869.26 -52.21,868.57 -54.86,868.23 -57.54,868.29 -60.17,868.74 -62.73,869.57"/>
    </edge>
    <edge id=":114_1" function="internal">
        <lane id=":114_1_0" index="0" disallow="pedestrian tram rail_urban rail rail_electric rail_fast ship" speed="8.62" length="35.57" width="3.50" shape="-32.94,875.78 -44.09,867.55 -55.20,860.27 -59.70,856.91 -61.86,855.11"/>
    </edge>
    <edge id=":114_2" function="internal">
        <lane id=":114_2_0" index="0" disallow="pedestrian tram rail_urban rail rail_electric rail_fast ship" speed="36.11" length="17.53" width="3.50" shape="-47.08,861.69 -48.52,862.36 -52.32,864.26 -58.85,867.80 -62.73,869.57"/>
    </edge>
    <edge id=":114_3" function="internal">
        <lane id=":114_3_0" index="0" disallow="pedestrian tram rail_urban rail rail_electric rail_fast ship" speed="7.42" length="16.71" width="3.50" shape="-47.08,861.69 -47.14,861.56 -48.77,861.68 -50.39,861.54 -52.50,861.01 -55.00,859.95 -57.35,858.58 -60.42,856.33 -61.86,855.11"/>
    </edge>
    <edge id=":114_4" function="internal">
        <lane id=":114_4_0" index="0" disallow="pedestrian tram rail_urban rail rail_electric rail_fast ship" speed="36.11" length="20.58" width="3.43" shape="-65.34,863.07 -61.47,861.75 -55.56,860.26 -49.64,858.79 -45.57,857.40"/>
        <lane id=":114_4_1" index="1" disallow="pedestrian tram rail_urban rail rail_electric rail_fast ship" speed="36.11" length="20.54" width="3.43" shape="-64.05,866.33 -60.27,864.61 -53.74,861.06 -49.84,859.12 -45.57,857.40"/>
    </edge>
    <edge id=":115_0" function="internal">
        <lane id=":115_0_0" index="0" disallow="pedestrian tram rail_urban rail rail_electric rail_fast ship" speed="36.11" length="8.22" width="3.50" shape="-66.84,850.83 -71.46,846.87 -73.08,845.48"/>
    </edge>
    <edge id=":115_1" function="internal">
        <lane id=":115_1_0" index="0" disallow="pedestrian tram rail_urban rail rail_electric rail_fast ship" speed="6.83" length="5.70" width="3.50" shape="-72.60,852.38 -72.76,851.39 -73.53,848.83 -74.37,846.99"/>
    </edge>
    <edge id=":116_0" function="internal">
        <lane id=":116_0_0" index="0" disallow="pedestrian tram rail_urban rail rail_electric rail_fast ship" speed="36.11" length="20.70" width="3.50" shape="-62.96,869.66 -72.55,873.52 -82.16,877.39"/>
    </edge>
    <edge id=":116_1" function="internal">
        <lane id=":116_1_0" index="0" disallow="pedestrian tram rail_urban rail rail_electric rail_fast ship" speed="7.57" length="17.46" width="3.50" shape="-62.96,869.66 -64.95,870.34 -67.03,870.75 -68.43,870.75 -69.80,870.43 -70.43,870.12 -70.99,869.69 -71.47,869.18 -72.17,867.96 -72.59,866.61 -72.84,864.52 -72.78,861.70 -72.71,861.13"/>
    </edge>
    <edge id=":116_2" function="internal">
        <lane id=":116_2_0" index="0" disallow="pedestrian tram rail_urban rail rail_electric rail_fast ship" speed="10.80" length="15.86" width="3.50" shape="-84.79,870.91 -81.32,869.32 -78.50,867.67 -76.34,866.02 -74.82,864.47 -73.86,863.15 -73.11,861.70 -72.93,861.10"/>
    </edge>
    <edge id=":116_3" function="internal">
        <lane id=":116_3_0" index="0" disallow="pedestrian tram rail_urban rail rail_electric rail_fast ship" speed="36.11" length="20.74" width="3.50" shape="-84.79,870.91 -75.17,867.03 -65.55,863.16"/>
        <lane id=":116_3_1" index="1" disallow="pedestrian tram rail_urban rail rail_electric rail_fast ship" speed="36.11" length="20.73" width="3.50" shape="-83.47,874.15 -73.86,870.28 -64.24,866.41"/>
    </edge>
    <edge id=":117_0" function="internal">
        <lane id=":117_0_0" index="0" disallow="pedestrian tram rail_urban rail rail_electric rail_fast ship" speed="36.11" length="34.58" width="3.50" shape="-26.24,870.48 -39.68,859.60 -53.12,848.73"/>
    </edge>
    <edge id=":117_1" function="internal">
        <lane id=":117_1_0" index="0" disallow="pedestrian tram rail_urban rail rail_electric rail_fast ship" speed="8.42" length="21.89" width="3.49" shape="-24.04,867.75 -26.02,866.10 -28.87,863.49 -30.67,861.56 -31.53,860.48 -32.31,859.28 -32.93,857.88 -33.18,856.29 -32.94,854.77 -32.30,853.30 -29.25,851.18"/>
    </edge>
    <edge id=":117_2" function="internal">
        <lane id=":117_2_0" index="0" disallow="pedestrian tram rail_urban rail rail_electric rail_fast ship" speed="6.78" length="13.36" width="3.50" shape="-29.72,855.15 -30.04,855.65 -29.99,856.61 -29.56,857.49 -29.00,858.30 -28.38,859.06 -27.71,859.79 -27.02,860.49 -25.59,861.84 -23.36,863.78 -21.84,865.03"/>
    </edge>
    <edge id=":117_3" function="internal">
        <lane id=":117_3_0" index="0" disallow="pedestrian tram rail_urban rail rail_electric rail_fast ship" speed="36.11" length="18.35" width="3.50" shape="-29.72,855.15 -34.32,856.97 -46.89,861.62"/>
    </edge>
    <edge id=":117_4" function="internal">
        <lane id=":117_4_0" index="0" disallow="pedestrian tram rail_urban rail rail_electric rail_fast ship" speed="13.11" length="25.44" width="3.50" shape="-29.72,855.15 -31.39,855.67 -33.50,856.10 -35.65,856.25 -38.33,856.06 -40.97,855.51 -43.52,854.63 -46.44,853.25 -49.66,851.30 -53.12,848.73"/>
    </edge>
    <edge id=":117_5" function="internal">
        <lane id=":117_5_0" index="0" disallow="pedestrian tram rail_urban rail rail_electric rail_fast ship" speed="36.11" length="34.56" width="3.50" shape="-48.71,843.29 -35.28,854.16 -21.84,865.03"/>
    </edge>
    <edge id=":117_6" function="internal">
        <lane id=":117_6_0" index="0" disallow="pedestrian tram rail_urban rail rail_electric rail_fast ship" speed="8.13" length="20.76" width="3.50" shape="-50.92,846.01 -47.73,848.76 -45.71,850.75 -44.74,851.86 -43.83,853.08 -43.06,854.53 -42.67,856.24 -42.89,857.90 -43.56,859.41 -46.89,861.62"/>
    </edge>
    <edge id=":117_7" function="internal">
        <lane id=":117_7_0" index="0" disallow="pedestrian tram rail_urban rail rail_electric rail_fast ship" speed="6.37" length="11.84" width="3.50" shape="-45.38,857.33 -45.79,857.08 -45.92,856.08 -46.43,855.18 -47.05,854.35 -47.74,853.58 -48.46,852.83 -49.21,852.11 -50.74,850.73 -53.12,848.73"/>
    </edge>
    <edge id=":117_8" function="internal">
        <lane id=":117_8_0" index="0" disallow="pedestrian tram rail_urban rail rail_electric rail_fast ship" speed="36.11" length="17.26" width="3.49" shape="-45.38,857.33 -35.59,853.70 -29.25,851.18"/>
    </edge>
    <edge id=":117_9" function="internal">
        <lane id=":117_9_0" index="0" disallow="pedestrian tram rail_urban rail rail_electric rail_fast ship" speed="13.48" length="25.69" width="3.50" shape="-45.38,857.33 -44.44,857.19 -42.31,856.85 -39.62,856.81 -36.96,857.15 -34.35,857.82 -31.34,858.98 -28.00,860.72 -24.84,862.76 -21.84,865.03"/>
    </edge>
    <edge id=":118_0" function="internal">
        <lane id=":118_0_0" index="0" disallow="pedestrian tram rail_urban rail rail_electric rail_fast ship" speed="10.24" length="33.21" width="3.50" shape="4.89,843.14 1.01,844.88 -2.07,846.61 -4.36,848.27 -5.89,849.73 -7.16,851.43 -7.79,852.69 -8.17,854.05 -8.27,855.46 -8.10,856.86 -7.70,858.21 -6.75,860.11 -5.53,861.84 -3.64,863.94 -1.01,866.30 -0.45,866.74"/>
    </edge>
    <edge id=":118_1" function="internal">
        <lane id=":118_1_0" index="0" disallow="pedestrian tram rail_urban rail rail_electric rail_fast ship" speed="36.11" length="36.26" width="3.44" shape="3.58,839.89 -2.97,842.70 -21.51,851.56 -29.38,855.00"/>
    </edge>
    <edge id=":118_2" function="internal">
        <lane id=":118_2_0" index="0" disallow="pedestrian tram rail_urban rail rail_electric rail_fast ship" speed="14.68" length="30.02" width="3.50" shape="-26.96,840.81 -24.98,841.28 -21.84,841.66 -18.15,841.69 -14.46,841.36 -10.30,840.63 -5.70,839.45 -0.69,837.79 2.28,836.65"/>
    </edge>
    <edge id=":118_3" function="internal">
        <lane id=":118_3_0" index="0" disallow="pedestrian tram rail_urban rail rail_electric rail_fast ship" speed="36.11" length="20.94" width="3.50" shape="-30.09,844.85 -27.42,846.87 -13.19,857.21"/>
    </edge>
    <edge id=":118_4" function="internal">
        <lane id=":118_4_0" index="0" disallow="pedestrian tram rail_urban rail rail_electric rail_fast ship" speed="36.11" length="34.52" width="3.50" shape="-29.06,851.10 -22.90,848.35 -4.34,839.49 2.28,836.65"/>
    </edge>
    <edge id=":118_5" function="internal">
        <lane id=":118_5_0" index="0" disallow="pedestrian tram rail_urban rail rail_electric rail_fast ship" speed="11.20" length="17.20" width="3.50" shape="-29.06,851.10 -28.92,851.28 -27.35,851.27 -25.30,851.62 -22.81,852.41 -19.47,853.89 -15.35,856.16 -13.38,857.44"/>
    </edge>
    <edge id=":119_0" function="internal">
        <lane id=":119_0_0" index="0" disallow="pedestrian tram rail_urban rail rail_electric rail_fast ship" speed="10.19" length="33.47" width="3.50" shape="63.82,890.44 59.87,892.09 56.73,893.78 54.98,894.99 53.38,896.40 52.04,898.07 51.38,899.33 50.98,900.69 50.87,902.11 51.04,903.52 51.45,904.89 52.41,906.79 53.64,908.54 55.53,910.67 58.16,913.07 59.27,913.97"/>
    </edge>
    <edge id=":119_1" function="internal">
        <lane id=":119_1_0" index="0" disallow="pedestrian tram rail_urban rail rail_electric rail_fast ship" speed="14.55" length="28.67" width="3.50" shape="34.62,891.80 35.94,892.05 39.09,892.26 42.76,892.12 46.93,891.58 51.56,890.61 57.13,889.04 62.59,887.16"/>
    </edge>
    <edge id=":119_2" function="internal">
        <lane id=":119_2_0" index="0" disallow="pedestrian tram rail_urban rail rail_electric rail_fast ship" speed="36.11" length="16.20" width="3.50" shape="33.31,893.46 43.25,901.31 46.02,903.50"/>
    </edge>
    <edge id=":120_0" function="internal">
        <lane id=":120_0_0" index="0" disallow="pedestrian tram rail_urban rail rail_electric rail_fast ship" speed="36.11" length="29.62" width="3.50" shape="43.31,924.52 31.79,915.21 20.28,905.90"/>
    </edge>
    <edge id=":120_1" function="internal">
        <lane id=":120_1_0" index="0" disallow="pedestrian tram rail_urban rail rail_electric rail_fast ship" speed="36.11" length="29.59" width="3.50" shape="22.49,903.18 33.99,912.48 45.49,921.79"/>
    </edge>
    <edge id=":120_2" function="internal">
        <lane id=":120_2_0" index="0" disallow="pedestrian tram rail_urban rail rail_electric rail_fast ship" speed="8.57" length="16.78" width="3.50" shape="27.91,919.22 28.52,918.26 28.78,917.18 28.72,916.07 28.18,914.48 27.34,913.03 25.61,910.84 22.83,908.08 20.28,905.90"/>
    </edge>
    <edge id=":121_0" function="internal">
        <lane id=":121_0_0" index="0" disallow="pedestrian tram rail_urban rail rail_electric rail_fast ship" speed="36.11" length="31.33" width="3.50" shape="-89.81,816.74 -101.12,807.45 -114.08,796.92"/>
    </edge>
    <edge id=":121_1" function="internal">
        <lane id=":121_1_0" index="0" disallow="pedestrian tram rail_urban rail rail_electric rail_fast ship" speed="9.19" length="18.60" width="3.50" shape="-96.21,799.22 -96.78,800.19 -97.05,801.28 -97.02,802.41 -96.56,804.03 -95.79,805.54 -94.49,807.38 -92.23,809.90 -88.91,812.94 -87.60,814.03"/>
    </edge>
    <edge id=":121_2" function="internal">
        <lane id=":121_2_0" index="0" disallow="pedestrian tram rail_urban rail rail_electric rail_fast ship" speed="9.53" length="20.32" width="3.50" shape="-96.21,799.22 -97.39,800.50 -98.81,801.51 -100.42,802.16 -102.15,802.39 -103.89,802.26 -105.58,801.85 -107.74,801.00 -110.29,799.60 -113.17,797.63 -114.08,796.92"/>
    </edge>
    <edge id=":121_3" function="internal">
        <lane id=":121_3_0" index="0" disallow="pedestrian tram rail_urban rail rail_electric rail_fast ship" speed="36.11" length="31.48" width="3.50" shape="-111.98,794.12 -98.92,804.73 -87.60,814.03"/>
    </edge>
    <edge id=":122_0" function="internal">
        <lane id=":122_0_0" index="0" disallow="pedestrian tram rail_urban rail rail_electric rail_fast ship" speed="36.11" length="42.88" width="3.50" shape="-113.62,887.88 -133.77,895.20 -153.92,902.53"/>
    </edge>
    <edge id=":122_1" function="internal">
        <lane id=":122_1_0" index="0" disallow="pedestrian tram rail_urban rail rail_electric rail_fast ship" speed="36.11" length="42.89" width="3.50" shape="-155.14,899.25 -134.97,891.92 -114.83,884.60"/>
    </edge>
    <edge id=":122_2" function="internal">
        <lane id=":122_2_0" index="0" disallow="pedestrian tram rail_urban rail rail_electric rail_fast ship" speed="13.74" length="22.63" width="3.50" shape="-155.14,899.25 -153.14,898.66 -150.57,898.29 -147.98,898.28 -144.88,898.62 -141.34,899.41 -137.38,900.68 -133.26,902.38"/>
    </edge>
    <edge id=":123_0" function="internal">
        <lane id=":123_0_0" index="0" disallow="pedestrian tram rail_urban rail rail_electric rail_fast ship" speed="36.11" length="38.29" width="3.50" shape="90.03,807.32 72.23,814.34 54.41,821.36"/>
    </edge>
    <edge id=":123_1" function="internal">
        <lane id=":123_1_0" index="0" disallow="pedestrian tram rail_urban rail rail_electric rail_fast ship" speed="12.10" length="34.55" width="3.50" shape="90.03,807.32 88.82,807.77 86.37,808.52 83.81,809.07 81.17,809.34 78.51,809.26 77.13,809.05 75.79,808.74 74.48,808.30 73.22,807.74 72.01,807.07 70.87,806.29 69.82,805.43 68.82,804.47 67.12,802.44 65.68,800.24 64.48,797.92 63.05,794.36"/>
    </edge>
    <edge id=":123_2" function="internal">
        <lane id=":123_2_0" index="0" disallow="pedestrian tram rail_urban rail rail_electric rail_fast ship" speed="11.09" length="28.83" width="3.50" shape="66.36,793.21 67.60,796.31 68.62,798.28 69.82,800.14 71.25,801.84 72.04,802.61 72.90,803.31 73.82,803.94 74.78,804.48 75.80,804.93 76.85,805.28 77.93,805.54 79.02,805.71 81.24,805.78 83.44,805.56 85.61,805.09 87.73,804.44 88.77,804.06"/>
    </edge>
    <edge id=":123_3" function="internal">
        <lane id=":123_3_0" index="0" disallow="pedestrian tram rail_urban rail rail_electric rail_fast ship" speed="12.49" length="34.68" width="3.50" shape="66.36,793.21 67.45,796.92 67.95,799.43 68.23,801.99 68.24,804.56 67.93,807.11 67.26,809.58 66.79,810.78 66.22,811.93 65.56,813.03 63.99,815.06 62.15,816.85 60.10,818.40 57.90,819.73 54.41,821.36"/>
    </edge>
    <edge id=":123_4" function="internal">
        <lane id=":123_4_0" index="0" disallow="pedestrian tram rail_urban rail rail_electric rail_fast ship" speed="11.51" length="29.31" width="3.50" shape="53.08,818.13 56.15,816.69 58.02,815.56 59.74,814.26 61.26,812.77 62.56,811.07 63.07,810.20 63.53,809.26 63.91,808.32 64.46,806.25 64.71,804.13 64.69,801.97 64.44,799.78 64.01,797.61 63.05,794.36"/>
    </edge>
    <edge id=":123_5" function="internal">
        <lane id=":123_5_0" index="0" disallow="pedestrian tram rail_urban rail rail_electric rail_fast ship" speed="36.11" length="38.36" width="3.50" shape="53.08,818.13 70.94,811.08 88.77,804.06"/>
    </edge>
    <edge id=":124_0" function="internal">
        <lane id=":124_0_0" index="0" disallow="pedestrian tram rail_urban rail rail_electric rail_fast ship" speed="14.09" length="27.64" width="3.50" shape="8.55,915.26 8.27,915.20 5.65,914.94 2.50,915.04 -1.15,915.53 -5.77,916.57 -10.80,918.11 -17.21,920.51 -18.18,920.91"/>
    </edge>
    <edge id=":124_1" function="internal">
        <lane id=":124_1_0" index="0" disallow="pedestrian tram rail_urban rail rail_electric rail_fast ship" speed="36.11" length="15.91" width="3.50" shape="9.44,914.10 1.57,907.88 -2.98,904.16"/>
    </edge>
    <edge id=":124_2" function="internal">
        <lane id=":124_2_0" index="0" disallow="pedestrian tram rail_urban rail rail_electric rail_fast ship" speed="36.11" length="15.91" width="3.50" shape="9.44,914.10 1.57,907.88 -2.98,904.16"/>
    </edge>
    <edge id=":124_3" function="internal">
        <lane id=":124_3_0" index="0" disallow="pedestrian tram rail_urban rail rail_electric rail_fast ship" speed="9.97" length="30.82" width="3.50" shape="-19.53,917.68 -15.79,915.96 -12.82,914.25 -10.62,912.62 -9.15,911.19 -7.92,909.54 -7.32,908.31 -6.95,906.99 -6.85,905.63 -7.02,904.27 -7.42,902.96 -8.34,901.12 -9.53,899.45 -11.38,897.43 -13.42,895.60"/>
    </edge>
    <edge id=":124_4" function="internal">
        <lane id=":124_4_0" index="0" disallow="pedestrian tram rail_urban rail rail_electric rail_fast ship" speed="9.97" length="30.82" width="3.50" shape="-19.53,917.68 -15.79,915.96 -12.82,914.25 -10.62,912.62 -9.15,911.19 -7.92,909.54 -7.32,908.31 -6.95,906.99 -6.85,905.63 -7.02,904.27 -7.42,902.96 -8.34,901.12 -9.53,899.45 -11.38,897.43 -13.42,895.60"/>
    </edge>
    <edge id=":125_0" function="internal">
        <lane id=":125_0_0" index="0" disallow="pedestrian tram rail_urban rail rail_electric rail_fast ship" speed="36.11" length="41.55" width="3.50" shape="-57.50,937.22 -76.65,945.28 -95.80,953.34"/>
    </edge>
    <edge id=":125_1" function="internal">
        <lane id=":125_1_0" index="0" disallow="pedestrian tram rail_urban rail rail_electric rail_fast ship" speed="12.08" length="18.29" width="3.50" shape="-76.79,934.72 -73.83,935.40 -70.70,935.79 -67.54,935.86 -64.40,935.56 -61.83,935.01 -59.33,934.19 -58.84,933.99"/>
    </edge>
    <edge id=":125_2" function="internal">
        <lane id=":125_2_0" index="0" disallow="pedestrian tram rail_urban rail rail_electric rail_fast ship" speed="10.79" length="38.52" width="3.50" shape="-94.43,926.39 -90.87,928.91 -88.08,931.24 -86.03,933.31 -84.68,935.02 -83.56,936.89 -83.01,938.24 -82.67,939.65 -82.59,941.10 -82.80,942.54 -83.28,943.91 -83.99,945.17 -85.36,946.87 -86.97,948.34 -89.33,950.03 -92.50,951.81 -95.80,953.34"/>
    </edge>
    <edge id=":125_3" function="internal">
        <lane id=":125_3_0" index="0" disallow="pedestrian tram rail_urban rail rail_electric rail_fast ship" speed="36.11" length="41.59" width="3.50" shape="-97.17,950.12 -78.01,942.05 -58.84,933.99"/>
    </edge>
    <edge id=":126_0" function="internal">
        <lane id=":126_0_0" index="0" disallow="pedestrian tram rail_urban rail rail_electric rail_fast ship" speed="36.11" length="11.53" width="3.50" shape="-95.99,789.51 -86.81,796.49"/>
    </edge>
    <edge id=":126_1" function="internal">
        <lane id=":126_1_0" index="0" disallow="pedestrian tram rail_urban rail rail_electric rail_fast ship" speed="5.96" length="7.33" width="3.49" shape="-96.78,790.54 -95.62,792.50 -95.04,794.13 -94.87,795.26 -94.91,796.41 -95.18,797.40"/>
    </edge>
    <edge id=":127_0" function="internal">
        <lane id=":127_0_0" index="0" disallow="pedestrian tram rail_urban rail rail_electric rail_fast ship" speed="11.93" length="28.37" width="3.50" shape="51.76,761.91 51.00,759.95 50.06,758.07 48.91,756.31 47.55,754.71 45.98,753.31 44.23,752.15 42.33,751.25 40.33,750.61 38.27,750.20 36.18,750.00 33.03,750.01 29.89,750.34 28.85,750.50"/>
    </edge>
    <edge id=":127_1" function="internal">
        <lane id=":127_1_0" index="0" disallow="pedestrian tram rail_urban rail rail_electric rail_fast ship" speed="36.11" length="38.43" width="3.50" shape="51.76,761.91 46.63,746.12 40.10,725.29"/>
    </edge>
    <edge id=":127_2" function="internal">
        <lane id=":127_2_0" index="0" disallow="pedestrian tram rail_urban rail rail_electric rail_fast ship" speed="36.11" length="38.34" width="3.50" shape="43.44,724.23 49.96,745.03 55.07,760.76"/>
    </edge>
    <edge id=":127_3" function="internal">
        <lane id=":127_3_0" index="0" disallow="pedestrian tram rail_urban rail rail_electric rail_fast ship" speed="11.82" length="35.71" width="3.50" shape="43.44,724.23 44.52,728.23 44.99,730.93 45.21,733.67 45.11,736.41 44.91,737.77 44.60,739.10 44.16,740.41 43.60,741.66 42.91,742.85 42.10,743.96 41.19,744.97 40.17,745.90 39.08,746.73 37.92,747.46 35.45,748.67 32.87,749.58 30.20,750.25 28.85,750.50"/>
    </edge>
    <edge id=":127_4" function="internal">
        <lane id=":127_4_0" index="0" disallow="pedestrian tram rail_urban rail rail_electric rail_fast ship" speed="10.80" length="29.59" width="3.50" shape="28.26,747.06 29.41,746.84 31.71,746.26 33.89,745.49 35.96,744.47 36.87,743.88 37.74,743.22 38.54,742.48 39.25,741.68 39.88,740.81 40.41,739.88 40.84,738.90 41.18,737.87 41.42,736.79 41.57,735.72 41.65,733.41 41.46,731.10 41.05,728.79 40.10,725.29"/>
    </edge>
    <edge id=":127_5" function="internal">
        <lane id=":127_5_0" index="0" disallow="pedestrian tram rail_urban rail rail_electric rail_fast ship" speed="12.89" length="33.33" width="3.50" shape="28.26,747.06 29.46,746.87 33.01,746.50 36.62,746.50 39.08,746.75 41.50,747.26 43.88,748.05 46.15,749.15 48.25,750.57 50.12,752.27 51.74,754.20 53.09,756.30 54.19,758.50 55.07,760.76"/>
    </edge>
    <edge id=":128_0" function="internal">
        <lane id=":128_0_0" index="0" disallow="pedestrian tram rail_urban rail rail_electric rail_fast ship" speed="36.11" length="9.70" width="3.50" shape="25.82,926.72 24.34,925.59 18.11,920.83"/>
    </edge>
    <edge id=":128_1" function="internal">
        <lane id=":128_1_0" index="0" disallow="pedestrian tram rail_urban rail rail_electric rail_fast ship" speed="3.62" length="2.08" width="3.49" shape="27.06,925.10 26.69,924.23 26.48,923.12"/>
    </edge>
    <edge id=":129_0" function="internal">
        <lane id=":129_0_0" index="0" disallow="pedestrian tram rail_urban rail rail_electric rail_fast ship" speed="36.11" length="8.04" width="3.50" shape="-2.99,887.75 -8.80,883.79 -9.62,883.21"/>
        <lane id=":129_0_1" index="1" disallow="pedestrian tram rail_urban rail rail_electric rail_fast ship" speed="36.11" length="8.04" width="3.50" shape="-2.29,886.88 -8.11,881.33"/>
    </edge>
    <edge id=":130_0" function="internal">
        <lane id=":130_0_0" index="0" disallow="pedestrian tram rail_urban rail rail_electric rail_fast ship" speed="36.11" length="8.02" width="3.50" shape="-74.09,824.26 -67.48,828.81"/>
        <lane id=":130_0_1" index="1" disallow="pedestrian tram rail_urban rail rail_electric rail_fast ship" speed="36.11" length="8.03" width="3.50" shape="-74.79,825.12 -68.98,830.66"/>
    </edge>
    <edge id=":131_0" function="internal">
        <lane id=":131_0_0" index="0" disallow="pedestrian tram rail_urban rail rail_electric rail_fast ship" speed="36.11" length="7.91" width="3.50" shape="-65.25,813.61 -60.58,817.34 -59.04,818.51"/>
        <lane id=":131_0_1" index="1" disallow="pedestrian tram rail_urban rail rail_electric rail_fast ship" speed="36.11" length="8.13" width="3.50" shape="-65.88,814.39 -65.72,814.56 -60.58,820.56"/>
    </edge>
    <edge id=":132_0" function="internal">
        <lane id=":132_0_0" index="0" disallow="pedestrian tram rail_urban rail rail_electric rail_fast ship" speed="36.11" length="8.04" width="3.50" shape="29.50,831.95 22.31,835.54"/>
        <lane id=":132_0_1" index="1" disallow="pedestrian tram rail_urban rail rail_electric rail_fast ship" speed="36.11" length="8.05" width="3.50" shape="29.09,830.94 21.40,833.32"/>
    </edge>
    <edge id=":20_0" function="internal">
        <lane id=":20_0_0" index="0" disallow="pedestrian tram rail_urban rail rail_electric rail_fast ship" speed="36.11" length="3.07" width="3.50" shape="-31.02,881.64 -33.46,879.78"/>
    </edge>
    <edge id=":20_1" function="internal">
        <lane id=":20_1_0" index="0" disallow="pedestrian tram rail_urban rail rail_electric rail_fast ship" speed="36.11" length="3.23" width="3.50" shape="-28.81,879.02 -31.33,877.00"/>
    </edge>
    <edge id=":25_0" function="internal">