<routes>
	<vehicle depart="0.1" departLane="0" departPos="65.98992902957025" departSpeed="6.0939803" id="335" type="bicycle">
		<route edges="78411 78408"/>
	</vehicle>
	<vehicle depart="0.1" departLane="0" departPos="18.861553852522462" departSpeed="0.53693353" id="31" type="passenger">
		<route edges=":123_2 78412"/>
	</vehicle>
	<vehicle depart="0.1" departLane="0" departPos="33.64025593896199" departSpeed="11.249066" id="37" type="passenger">
		<route edges=":123_0 78408 79196 79811 79813"/>
	</vehicle>
	<vehicle depart="0.1" departLane="0" departPos="17.585925925752264" departSpeed="10.199826" id="328" type="passenger">
		<route edges=":123_0 78408 79196 79811"/>
	</vehicle>
	<vehicle depart="0.1" departLane="0" departPos="69.51682862512858" departSpeed="3.0892431" id="339" type="passenger">
		<route edges="78411 79599"/>
	</vehicle>
	<vehicle depart="0.1" departLane="0" departPos="41.021382340629046" departSpeed="5.1092372" id="357" type="passenger">
		<route edges="78411 79599"/>
	</vehicle>
	<vehicle depart="0.1" departLane="0" departPos="20.675160586691145" departSpeed="4.8843471" id="369" type="passenger">
		<route edges="78411 79599"/>
	</vehicle>
	<vehicle depart="0.1" departLane="0" departPos="7.3705345696405296" departSpeed="12.000844" id="35" type="motorcycle">
		<route edges="78408 79196 78846 78875"/>
	</vehicle>
	<vehicle depart="0.1" departLane="0" departPos="4.202791051430577" departSpeed="9.517074" id="332" type="motorcycle">
		<route edges="78409 79599"/>
	</vehicle>
	<vehicle depart="0.1" departLane="0" departPos="49.908131249591875" departSpeed="5.6948575" id="348" type="motorcycle">
		<route edges="78411 79599"/>
	</vehicle>
</routes>
