<routes>
	<vehicle depart="0.1" departLane="0" departPos="8.077326864678557" departSpeed="8.1984074" id="37" type="bicycle">
		<route edges=":65_0 52801 52804"/>
	</vehicle>
	<vehicle depart="0.1" departLane="0" departPos="69.04771877902806" departSpeed="0.0" id="327" type="bus">
		<route edges="52798 51938"/>
	</vehicle>
	<vehicle depart="0.1" departLane="0" departPos="8.253275192815266" departSpeed="0.028209867" id="36" type="passenger">
		<route edges="51938 52063"/>
	</vehicle>
	<vehicle depart="0.1" departLane="0" departPos="22.307972485313428" departSpeed="9.8128856" id="310" type="passenger">
		<route edges=":65_1 52797"/>
	</vehicle>
	<vehicle depart="0.1" departLane="0" departPos="5.968141122342398" departSpeed="0.22444229" id="340" type="passenger">
		<route edges=":64_3 52063"/>
	</vehicle>
	<vehicle depart="0.1" departLane="0" departPos="21.826306066692023" departSpeed="5.5067842" id="344" type="passenger">
		<route edges="51937 52801"/>
	</vehicle>
	<vehicle depart="0.1" departLane="0" departPos="15.44071045404014" departSpeed="0.10332885" id="33" type="motorcycle">
		<route edges="51938 52063"/>
	</vehicle>
	<vehicle depart="0.1" departLane="0" departPos="32.653875466895144" departSpeed="0.00012090616" id="334" type="motorcycle">
		<route edges=":65_5 51938"/>
	</vehicle>
</routes>
