<routes>
	<vehicle depart="0.1" departLane="0" departPos="9.0033333873803" departSpeed="0.14822143" id="37" type="bicycle">
		<route edges=":43_0 32037"/>
	</vehicle>
	<vehicle depart="0.1" departLane="0" departPos="63.61137044532576" departSpeed="1.3650437" id="337" type="bus">
		<route edges="32040 31556"/>
	</vehicle>
	<vehicle depart="0.1" departLane="0" departPos="57.96714182581916" departSpeed="1.3128493" id="310" type="passenger">
		<route edges="31522 31015"/>
	</vehicle>
	<vehicle depart="0.1" departLane="0" departPos="31.13989910339787" departSpeed="0.99018485" id="324" type="passenger">
		<route edges=":45_0 31017 32038"/>
	</vehicle>
	<vehicle depart="0.1" departLane="0" departPos="22.407666318344916" departSpeed="4.8221303" id="333" type="passenger">
		<route edges=":43_1 31556 31649"/>
	</vehicle>
	<vehicle depart="0.1" departLane="0" departPos="42.798698055770146" departSpeed="2.3051065" id="340" type="passenger">
		<route edges="32040 31556"/>
	</vehicle>
	<vehicle depart="0.1" departLane="0" departPos="32.55024313474192" departSpeed="1.5811678" id="344" type="passenger">
		<route edges="32040 31556"/>
	</vehicle>
	<vehicle depart="0.1" departLane="0" departPos="50.23284414585519" departSpeed="0.082367116" id="321" type="motorcycle">
		<route edges="31522 31015"/>
	</vehicle>
	<vehicle depart="0.1" departLane="0" departPos="11.907033048718311" departSpeed="1.4695208" id="31" type="truck">
		<route edges=":41_5 32038 32041"/>
	</vehicle>
	<vehicle depart="0.1" departLane="0" departPos="7.387943354135621" departSpeed="1.7715984" id="314" type="truck">
		<route edges=":41_2 32038"/>
	</vehicle>
</routes>
