<routes>
	<vehicle depart="0.1" departLane="0" departPos="5.19016647528248" departSpeed="0.0" id="310" type="passenger">
		<route edges="66718 66175"/>
	</vehicle>
	<vehicle depart="0.1" departLane="0" departPos="42.36175281974792" departSpeed="16.268051" id="349" type="passenger">
		<route edges=":56_2 66175"/>
	</vehicle>
	<vehicle depart="0.1" departLane="0" departPos="22.990572902744443" departSpeed="11.974039" id="351" type="passenger">
		<route edges=":56_2 66175"/>
	</vehicle>
	<vehicle depart="0.1" departLane="0" departPos="11.64385538049323" departSpeed="6.7630234" id="354" type="passenger">
		<route edges=":56_2 66175"/>
	</vehicle>
</routes>
