<?xml version="1.0" encoding="UTF-8"?>

<!-- generated on Fri Dec 18 15:37:46 2020 by Eclipse SUMO netconvert Version 1.8.0
<configuration xmlns:xsi="http://www.w3.org/2001/XMLSchema-instance" xsi:noNamespaceSchemaLocation="http://sumo.dlr.de/xsd/netconvertConfiguration.xsd">

    <input>
        <node-files value="./converted_scenarios/hand-crafted/DEU_B471-1_1_I-1-1/nodes.net.xml"/>
        <edge-files value="./converted_scenarios/hand-crafted/DEU_B471-1_1_I-1-1/edges.net.xml"/>
        <connection-files value="./converted_scenarios/hand-crafted/DEU_B471-1_1_I-1-1/_connections.net.xml"/>
        <tllogic-files value="./converted_scenarios/hand-crafted/DEU_B471-1_1_I-1-1/_tll.net.xml"/>
    </input>

    <output>
        <output-file value="./converted_scenarios/hand-crafted/DEU_B471-1_1_I-1-1/DEU_B471-1_1_I-1-1.net.xml"/>
    </output>

    <processing>
        <plain.extend-edge-shape value="true"/>
        <geometry.remove.keep-edges.explicit value="true"/>
        <geometry.avoid-overlap value="true"/>
        <offset.disable-normalization value="true"/>
    </processing>

    <junctions>
        <no-turnarounds value="true"/>
        <junctions.internal-link-detail value="20"/>
    </junctions>

    <report>
        <aggregate-warnings value="5"/>
    </report>

    <random_number>
        <seed value="1234"/>
    </random_number>

</configuration>
-->

<net version="1.6" junctionCornerDetail="5" junctionLinkDetail="20" limitTurnSpeed="5.50" xmlns:xsi="http://www.w3.org/2001/XMLSchema-instance" xsi:noNamespaceSchemaLocation="http://sumo.dlr.de/xsd/net_file.xsd">

    <location netOffset="0.00,0.00" convBoundary="-180.95,-88.71,212.93,93.68" origBoundary="-180.95,-88.71,212.93,93.68" projParameter="!"/>

    <edge id="38807" from="1" to="2" priority="1" spreadType="center" length="431.36">
        <lane id="38807_0" index="0" disallow="bus truck rail_fast" speed="36.11" length="431.36" width="3.43" customShape="1" shape="-178.80,-88.71 -178.36,-88.42 -161.42,-77.63 -144.16,-67.34 -101.78,-44.21 -101.30,-43.96 -51.73,-20.36 -21.34,-7.97 37.31,14.16 37.84,14.37 76.96,29.92 115.65,47.30 160.01,67.25 212.60,90.11 212.93,90.25"/>
    </edge>
    <edge id="38811" from="3" to="4" priority="1" spreadType="center" length="432.15">
        <lane id="38811_0" index="0" disallow="bus truck rail_fast" speed="36.11" length="432.15" width="3.61" customShape="1" shape="211.52,93.68 159.28,70.97 158.58,70.66 114.95,51.06 114.30,50.77 75.88,33.76 37.07,18.17 36.46,17.93 -22.34,-4.30 -22.77,-4.46 -52.83,-16.64 -53.33,-16.86 -102.78,-40.44 -145.64,-64.09 -163.03,-74.41 -180.16,-85.06 -180.47,-85.26 -180.95,-85.60"/>
    </edge>

    <junction id="1" type="dead_end" x="-178.80" y="-88.71" incLanes="" intLanes="" shape="-179.75,-87.28 -177.85,-90.13"/>
    <junction id="2" type="dead_end" x="212.93" y="90.25" incLanes="38807_0" intLanes="" shape="213.60,88.68 212.26,91.83"/>
    <junction id="3" type="dead_end" x="211.52" y="93.68" incLanes="" intLanes="" shape="212.24,92.03 210.80,95.34"/>
    <junction id="4" type="dead_end" x="-180.95" y="-85.60" incLanes="38811_0" intLanes="" shape="-181.98,-84.11 -179.93,-87.08"/>

</net>
