<routes>
	<vehicle depart="0.1" departLane="0" departPos="74.77188398646703" departSpeed="8.3" id="206" type="passenger">
		<route edges="38811"/>
	</vehicle>
	<vehicle depart="0.1" departLane="0" departPos="0" departSpeed="28.0" id="207" type="passenger">
		<route edges="38811"/>
	</vehicle>
	<vehicle depart="0.1" departLane="0" departPos="431.3580735728401" departSpeed="0" id="399" type="passenger_static">
		<route edges="38807"/>
	</vehicle>
</routes>
