<!-- generated on 2020-12-18 15:37:45.922385 by ipykernel_launcher.py v1_2_0+5214-53edc58fcd
-->
<edges>
	<edge from="1" function="normal" id="38807" length="431.3580735728401" numLanes="1" priority="1" speed="36.11111111111111" spreadType="center" to="2">
		<lane allow="pedestrian rail private passenger ship delivery vip emergency bicycle rail_electric army rail_urban trailer coach custom2 tram taxi evehicle custom1 motorcycle authority hov moped" index="0" length="431.3580735728401" shape="-178.79635000000002,-88.70925 -178.7863,-88.70240000000001 -178.3562,-88.41544999999999 -161.41885000000002,-77.6259 -144.1635,-67.33785 -101.78415,-44.2141 -101.30090000000001,-43.96265 -51.7281,-20.362450000000003 -21.3423,-7.97175 37.310249999999996,14.1615 37.8368,14.366299999999999 76.96345,29.92385 115.6498,47.3027 160.0095,67.2548 212.59745,90.1124 212.93205,90.2542 212.9323,90.2543" speed="36.11111111111111" width="3.426965644706699"/>
	</edge>
	<edge from="3" function="normal" id="38811" length="432.15409759250224" numLanes="1" priority="1" speed="36.11111111111111" spreadType="center" to="4">
		<lane allow="pedestrian rail private passenger ship delivery vip emergency bicycle rail_electric army rail_urban trailer coach custom2 tram taxi evehicle custom1 motorcycle authority hov moped" index="0" length="432.15409759250224" shape="211.5181,93.6809 159.28455000000002,70.9733 158.58485000000002,70.66499999999999 114.9479,51.0552 114.29675,50.7655 75.88034999999999,33.7568 37.07285,18.16545 36.4572,17.9268 -22.3437,-4.29605 -22.7665,-4.463 -52.83015,-16.6371 -53.33025,-16.8602 -102.7818,-40.4379 -145.63515,-64.09105 -163.0349,-74.4115 -180.16219999999998,-85.05935 -180.46769999999998,-85.2633 -180.95325,-85.59765" speed="36.11111111111111" width="3.609223424782686"/>
	</edge>
</edges>
