<!-- generated on 2020-12-18 15:37:46.036595 by ipykernel_launcher.py v1_2_0+5214-53edc58fcd
-->
<nodes>
	<node id="1" type="from" x="-178.79635000000002" y="-88.70925"/>
	<node id="2" type="to" x="212.9323" y="90.2543"/>
	<node id="3" type="from" x="211.5181" y="93.6809"/>
	<node id="4" type="to" x="-180.95325" y="-85.59765"/>
</nodes>
