<routes>
	<vehicle depart="0.1" departLane="0" departPos="29.476902136350184" departSpeed="7.7256053" id="1" type="passenger">
		<route edges="50201 50213 50197"/>
	</vehicle>
	<vehicle depart="0.1" departLane="0" departPos="79.31267032616088" departSpeed="4.5483945" id="2" type="passenger">
		<route edges="50195 50209 50203"/>
	</vehicle>
	<vehicle depart="0.1" departLane="0" departPos="147.39860603297691" departSpeed="2.7848706" id="4" type="passenger">
		<route edges="50205 50217 50199"/>
	</vehicle>
	<vehicle depart="0.1" departLane="0" departPos="155.39876749830842" departSpeed="3.4548161" id="5" type="passenger">
		<route edges="50205 50217 50199"/>
	</vehicle>
	<vehicle depart="0.1" departLane="0" departPos="21.473627287738744" departSpeed="3.4936265" id="7" type="passenger">
		<route edges="50201 50213 50197"/>
	</vehicle>
</routes>
