<routes>
	<vehicle depart="0.1" departLane="0" departPos="46.870280145708236" departSpeed="0.0020995032" id="315" type="bicycle">
		<route edges="784 204"/>
	</vehicle>
	<vehicle depart="0.1" departLane="0" departPos="31.67401801731815" departSpeed="6.9275817" id="316" type="bicycle">
		<route edges="135"/>
	</vehicle>
	<vehicle depart="0.1" departLane="0" departPos="15.438196532392105" departSpeed="2.0978651" id="334" type="bus">
		<route edges="224 133"/>
	</vehicle>
	<vehicle depart="0.1" departLane="0" departPos="38.47825170100997" departSpeed="0.0" id="31" type="passenger">
		<route edges="200 135"/>
	</vehicle>
	<vehicle depart="0.1" departLane="0" departPos="17.824677784294437" departSpeed="9.9555055" id="32" type="passenger">
		<route edges="785"/>
	</vehicle>
	<vehicle depart="0.1" departLane="0" departPos="17.346282045158524" departSpeed="0.00091889344" id="33" type="passenger">
		<route edges="200 135"/>
	</vehicle>
	<vehicle depart="0.1" departLane="0" departPos="31.708267643315303" departSpeed="0.0" id="34" type="passenger">
		<route edges="200 135"/>
	</vehicle>
	<vehicle depart="0.1" departLane="0" departPos="40.91255988423792" departSpeed="0.0" id="35" type="passenger">
		<route edges="131 133"/>
	</vehicle>
	<vehicle depart="0.1" departLane="0" departPos="33.19873375741429" departSpeed="0.0" id="36" type="passenger">
		<route edges="131 133"/>
	</vehicle>
	<vehicle depart="0.1" departLane="0" departPos="25.604478455870872" departSpeed="0.0" id="38" type="passenger">
		<route edges="131 133"/>
	</vehicle>
	<vehicle depart="0.1" departLane="0" departPos="50.42152463752348" departSpeed="0.0" id="39" type="passenger">
		<route edges="784 204"/>
	</vehicle>
	<vehicle depart="0.1" departLane="0" departPos="24.72765714499518" departSpeed="4.5020594e-05" id="310" type="passenger">
		<route edges="200 135"/>
	</vehicle>
	<vehicle depart="0.1" departLane="0" departPos="18.031522661363937" departSpeed="0.0" id="312" type="passenger">
		<route edges="131 133"/>
	</vehicle>
	<vehicle depart="0.1" departLane="0" departPos="43.134191139025575" departSpeed="0.00013600311" id="313" type="passenger">
		<route edges="784 204"/>
	</vehicle>
	<vehicle depart="0.1" departLane="0" departPos="2.5" departSpeed="8.5015514" id="314" type="passenger">
		<route edges=":21_3 785"/>
	</vehicle>
	<vehicle depart="0.1" departLane="0" departPos="10.308453639436411" departSpeed="7.6913761e-05" id="317" type="passenger">
		<route edges="131 133"/>
	</vehicle>
	<vehicle depart="0.1" departLane="0" departPos="35.81033927675481" departSpeed="0.0021257712" id="318" type="passenger">
		<route edges="784 204"/>
	</vehicle>
	<vehicle depart="0.1" departLane="0" departPos="11.834711039193751" departSpeed="10.135091" id="319" type="passenger">
		<route edges="201 204"/>
	</vehicle>
	<vehicle depart="0.1" departLane="0" departPos="9.992734957479556" departSpeed="0.0090946548" id="320" type="passenger">
		<route edges="200 135"/>
	</vehicle>
	<vehicle depart="0.1" departLane="0" departPos="8.778361100829352" departSpeed="8.1343191" id="322" type="passenger">
		<route edges=":22_2 201 204"/>
	</vehicle>
	<vehicle depart="0.1" departLane="0" departPos="69.11671933843769" departSpeed="0.0" id="326" type="passenger">
		<route edges="203 200"/>
	</vehicle>
	<vehicle depart="0.1" departLane="0" departPos="61.86597416956519" departSpeed="0.14325805" id="327" type="passenger">
		<route edges="203 200"/>
	</vehicle>
	<vehicle depart="0.1" departLane="0" departPos="18.82920124061635" departSpeed="0.085149351" id="328" type="passenger">
		<route edges="784 204"/>
	</vehicle>
	<vehicle depart="0.1" departLane="0" departPos="37.11960742358633" departSpeed="5.0822612" id="329" type="passenger">
		<route edges="224 133 135"/>
	</vehicle>
	<vehicle depart="0.1" departLane="0" departPos="11.363803389012677" departSpeed="0.26075482" id="331" type="passenger">
		<route edges="784 204"/>
	</vehicle>
	<vehicle depart="0.1" departLane="0" departPos="26.83298629031961" departSpeed="11.178709" id="333" type="passenger">
		<route edges="203 200"/>
	</vehicle>
	<vehicle depart="0.1" departLane="0" departPos="50.10526221323133" departSpeed="0.0" id="311" type="motorcycle">
		<route edges="784 204"/>
	</vehicle>
	<vehicle depart="0.1" departLane="0" departPos="1.25" departSpeed="0.091130743" id="323" type="motorcycle">
		<route edges="200 135"/>
	</vehicle>
	<vehicle depart="0.1" departLane="0" departPos="24.27501332293146" departSpeed="4.8920051" id="330" type="motorcycle">
		<route edges="224 133 135"/>
	</vehicle>
	<vehicle depart="0.1" departLane="0" departPos="52.32153535371455" departSpeed="2.3653094" id="332" type="motorcycle">
		<route edges="203 200"/>
	</vehicle>
	<vehicle depart="0.1" departLane="0" departPos="6.197535618504771" departSpeed="9.2953874" id="37" type="truck">
		<route edges="204"/>
	</vehicle>
	<vehicle depart="0.1" departLane="0" departPos="28.44647770711417" departSpeed="0.018157065" id="324" type="truck">
		<route edges="784 204"/>
	</vehicle>
</routes>
