<routes>
	<vehicle depart="0.1" departLane="0" departPos="1.0" departSpeed="0.43272354" id="38" type="bicycle">
		<route edges=":35_5 7508 6965"/>
	</vehicle>
	<vehicle depart="0.1" departLane="0" departPos="54.9069352829655" departSpeed="0.72711321" id="37" type="passenger">
		<route edges="7197 7245 7419"/>
	</vehicle>
	<vehicle depart="0.1" departLane="0" departPos="9.51010566615708" departSpeed="2.7377708" id="316" type="passenger">
		<route edges=":35_1 7245"/>
	</vehicle>
	<vehicle depart="0.1" departLane="0" departPos="45.02555423049639" departSpeed="0.31817086" id="321" type="passenger">
		<route edges="7197 7508"/>
	</vehicle>
	<vehicle depart="0.1" departLane="0" departPos="34.48696616598223" departSpeed="1.1725763" id="329" type="passenger">
		<route edges="7197 7508"/>
	</vehicle>
	<vehicle depart="0.1" departLane="0" departPos="26.878035907542273" departSpeed="0.93188292" id="333" type="passenger">
		<route edges="7197 7508"/>
	</vehicle>
	<vehicle depart="0.1" departLane="0" departPos="17.58183902257212" departSpeed="0.26107414" id="337" type="passenger">
		<route edges="7197 7508"/>
	</vehicle>
	<vehicle depart="0.1" departLane="0" departPos="18.97147134846245" departSpeed="9.0493568" id="350" type="passenger">
		<route edges=":35_2 7508 6965"/>
	</vehicle>
	<vehicle depart="0.1" departLane="0" departPos="6.838604671165813" departSpeed="9.9172031" id="356" type="passenger">
		<route edges=":35_3 7198"/>
	</vehicle>
	<vehicle depart="0.1" departLane="0" departPos="44.62602226030726" departSpeed="12.222904" id="361" type="passenger">
		<route edges=":34_1 7246 7198"/>
	</vehicle>
</routes>
