<routes>
	<vehicle depart="0.1" departLane="0" departPos="15.626441922554054" departSpeed="5.5261557" id="315" type="bicycle">
		<route edges="13089"/>
	</vehicle>
	<vehicle depart="0.1" departLane="0" departPos="32.6386862003505" departSpeed="6.7083161" id="317" type="bicycle">
		<route edges=":5_0 13089"/>
	</vehicle>
	<vehicle depart="0.1" departLane="0" departPos="24.923534271146856" departSpeed="12.887179" id="319" type="passenger">
		<route edges=":5_0 13089"/>
	</vehicle>
	<vehicle depart="0.1" departLane="0" departPos="7.13740151900262" departSpeed="12.029068" id="320" type="passenger">
		<route edges=":5_0 13089"/>
	</vehicle>
	<vehicle depart="0.1" departLane="0" departPos="57.53338670985213" departSpeed="15.044593" id="322" type="passenger">
		<route edges="13130 13089"/>
	</vehicle>
</routes>
