<routes>
	<vehicle depart="0.1" departLane="0" departPos="59.91512001029505" departSpeed="0.1025144" id="31" type="passenger">
		<route edges="39182 39334"/>
	</vehicle>
	<vehicle depart="0.1" departLane="0" departPos="26.324830151884683" departSpeed="6.6051664" id="316" type="passenger">
		<route edges=":51_4 39335 39381 39717 39172"/>
	</vehicle>
	<vehicle depart="0.1" departLane="0" departPos="4.84129465324502" departSpeed="6.1780282" id="320" type="passenger">
		<route edges=":50_2 39107"/>
	</vehicle>
	<vehicle depart="0.1" departLane="0" departPos="14.914987139970142" departSpeed="0.0" id="325" type="passenger">
		<route edges="39382 39107"/>
	</vehicle>
	<vehicle depart="0.1" departLane="0" departPos="7.772707609726517" departSpeed="0.00074417135" id="329" type="passenger">
		<route edges="39382 39107"/>
	</vehicle>
	<vehicle depart="0.1" departLane="0" departPos="28.17211346019087" departSpeed="0.0094464953" id="331" type="passenger">
		<route edges="39796 39382"/>
	</vehicle>
	<vehicle depart="0.1" departLane="0" departPos="22.34625312350694" departSpeed="5.1105384" id="332" type="passenger">
		<route edges="39105 39334"/>
	</vehicle>
	<vehicle depart="0.1" departLane="0" departPos="20.620022032820955" departSpeed="0.054891954" id="335" type="passenger">
		<route edges="39796 39382"/>
	</vehicle>
	<vehicle depart="0.1" departLane="0" departPos="6.313555288494684" departSpeed="3.6437276" id="338" type="passenger">
		<route edges="39105 39334"/>
	</vehicle>
	<vehicle depart="0.1" departLane="0" departPos="12.901985985519724" departSpeed="0.2184066" id="339" type="passenger">
		<route edges="39796 39382"/>
	</vehicle>
</routes>
