<routes>
	<vehicle depart="0.1" departLane="0" departPos="27.22343883851672" departSpeed="5.42446" id="328" type="bicycle">
		<route edges="46 983"/>
	</vehicle>
	<vehicle depart="0.1" departLane="0" departPos="15.248954621432956" departSpeed="0.0" id="39" type="passenger">
		<route edges="506 498"/>
	</vehicle>
	<vehicle depart="0.1" departLane="0" departPos="8.36385683304782" departSpeed="0.0" id="312" type="passenger">
		<route edges="506 498"/>
	</vehicle>
	<vehicle depart="0.1" departLane="0" departPos="41.42668468881634" departSpeed="0.0" id="313" type="passenger">
		<route edges="497 503"/>
	</vehicle>
	<vehicle depart="0.1" departLane="0" departPos="51.326822947969596" departSpeed="8.7222156" id="317" type="passenger">
		<route edges="504 507"/>
	</vehicle>
	<vehicle depart="0.1" departLane="0" departPos="34.88403062330239" departSpeed="4.1749451e-05" id="319" type="passenger">
		<route edges="497 503"/>
	</vehicle>
	<vehicle depart="0.1" departLane="0" departPos="68.24705684547803" departSpeed="8.17132" id="320" type="passenger">
		<route edges="504 507"/>
	</vehicle>
	<vehicle depart="0.1" departLane="0" departPos="18.19618561036939" departSpeed="0.0078772771" id="322" type="passenger">
		<route edges="497 503"/>
	</vehicle>
	<vehicle depart="0.1" departLane="0" departPos="10.79668677483426" departSpeed="0.070707462" id="326" type="passenger">
		<route edges="497 503"/>
	</vehicle>
	<vehicle depart="0.1" departLane="0" departPos="27.342304017493234" departSpeed="11.620278" id="327" type="passenger">
		<route edges="504 507"/>
	</vehicle>
	<vehicle depart="0.1" departLane="0" departPos="7.095846007201338" departSpeed="0.0" id="331" type="passenger">
		<route edges="44 504 507"/>
	</vehicle>
	<vehicle depart="0.1" departLane="0" departPos="9.922519073173989" departSpeed="9.7408847" id="311" type="motorcycle">
		<route edges="498"/>
	</vehicle>
	<vehicle depart="0.1" departLane="0" departPos="17.3229161080375" departSpeed="7.5854311" id="324" type="motorcycle">
		<route edges=":21_1 504 507"/>
	</vehicle>
	<vehicle depart="0.1" departLane="0" departPos="4.166004138259942" departSpeed="1.5095628" id="329" type="motorcycle">
		<route edges=":21_5 47"/>
	</vehicle>
	<vehicle depart="0.1" departLane="0" departPos="3.570581941659405" departSpeed="0.1630953" id="330" type="motorcycle">
		<route edges="497 503"/>
	</vehicle>
	<vehicle depart="0.1" departLane="0" departPos="24.8604323758734" departSpeed="0.0" id="37" type="truck">
		<route edges="506 498"/>
	</vehicle>
	<vehicle depart="0.1" departLane="0" departPos="27.939958089516942" departSpeed="0.0010061621" id="321" type="truck">
		<route edges="497 503"/>
	</vehicle>
</routes>
