<!-- generated on 2020-12-18 15:38:17.180915 by ipykernel_launcher.py v1_2_0+5214-53edc58fcd
-->
<edges>
	<edge from="1" function="normal" id="73" length="153.35717359628427" numLanes="6" priority="1" speed="36.11111111111111" spreadType="center" to="2">
		<lane allow="pedestrian rail private passenger ship delivery vip emergency bicycle rail_electric army rail_urban trailer coach custom2 tram taxi evehicle custom1 motorcycle authority hov moped" index="0" length="153.35717359628427" shape="-50.032849999999996,33.8594 -47.67785,31.7984 -46.955,31.15195 -44.2471,28.7834 -43.602549999999994,28.2065 -43.5207,28.134149999999998 -40.69555,25.75255 -39.97195000000001,25.107 -37.351150000000004,22.7502 -36.6275,22.1047 -33.956599999999995,19.79165 -33.233000000000004,19.146099999999997 -30.44015,16.6982 -29.716549999999998,16.05265 -27.2063,13.88965 -26.48265,13.2441 -23.70765,10.818750000000001 -22.98405,10.173200000000001 -20.28745,7.91165 -19.5638,7.26605 -16.8222,4.81155 -16.09855,4.166 -15.44035,3.59495 -13.364450000000001,1.79305 -12.64095,1.1473499999999999 -9.989149999999999,-1.1380000000000001 -9.26565,-1.78375 -6.57085,-4.1051 -5.8474,-4.7508 -1.34325,-8.6569 -0.61975,-9.30265 2.25235,-11.7595 2.9758500000000003,-12.4052 5.855650000000001,-14.884350000000001 6.57915,-15.53005 9.4036,-18.00645 10.127099999999999,-18.65215 12.79745,-20.9658 13.52095,-21.6115 16.10325,-23.83475 16.325400000000002,-24.030549999999998 17.0325,-24.69405 17.528550000000003,-25.15315 19.8386,-27.1965 20.55845,-27.8465 23.422400000000003,-30.40145 24.14225,-31.0514 26.9877,-33.57875 27.707549999999998,-34.2287 30.46015,-36.64805 31.18,-37.29805 33.065200000000004,-38.9277 33.910399999999996,-39.66095 35.6238,-41.201899999999995 41.8561,-46.49425 44.44435,-48.701350000000005 45.1718,-49.34225 47.993849999999995,-51.78 48.721199999999996,-52.4209 49.36905,-52.976 51.4146,-54.77145 52.13445,-55.421400000000006 54.7992,-57.7722 55.51915,-58.42205 58.3041,-60.8713 59.024,-61.5212 61.8254,-63.955650000000006 62.54535,-64.60555 65.37440000000001,-67.122" speed="36.11111111111111" width="3.6814288122955734"/>
		<lane allow="pedestrian rail private passenger ship delivery vip emergency bicycle rail_electric army rail_urban trailer coach custom2 tram taxi evehicle custom1 motorcycle authority hov moped" index="1" length="153.35717359628427" shape="-47.642300000000006,36.679249999999996 -45.2713,34.6245 -44.6028,34.03345 -44.5314,33.9717 -42.2101,31.960900000000002 -42.189049999999995,31.942500000000003 -41.7979,31.6019 -41.06745,30.9515 -39.1292,29.3215 -38.2371,28.56675 -37.5698,27.97045 -34.9741,25.632800000000003 -34.924400000000006,25.58885 -34.22965,24.967 -34.15975,24.906399999999998 -31.50295,22.6002 -31.35625,22.46965 -30.850099999999998,22.018 -30.79305,21.968049999999998 -28.297600000000003,19.78345 -27.9715,19.4941 -27.2517,18.844099999999997 -24.755000000000003,16.6663 -24.063299999999998,16.04165 -24.021250000000002,16.0046 -21.275,13.57425 -20.5552,12.92425 -19.605150000000002,12.1207 -17.8808,10.67535 -17.22,10.08685 -16.7605,9.677150000000001 -14.5155,7.686100000000001 -13.7804,7.03675 -13.69715,6.965299999999999 -10.95805,4.61145 -10.30735,4.03735 -10.214500000000001,3.95805 -8.7888,2.74015 -7.5436499999999995,1.6692 -6.8866499999999995,1.0841 -6.80575,1.0145 -5.7948,0.14359999999999995 -4.1145000000000005,-1.31885 -3.3941,-1.9682 1.0904500000000001,-5.896000000000001 1.81085,-6.54535 1.8918,-6.6142 4.6692,-8.9854 4.78205,-9.0851 5.2309,-9.47825 5.3423,-9.5717 8.2342,-11.9941 8.56335,-12.275749999999999 8.65245,-12.35515 8.96655,-12.63265 9.0352,-12.69195 11.70115,-15.02535 11.88925,-15.192350000000001 12.609,-15.8424 15.2654,-18.17145 15.985149999999999,-18.8215 17.115199999999998,-19.8052 18.84195,-21.28865 19.50145,-21.87605 19.558500000000002,-21.9259 20.08175,-22.38355 22.347450000000002,-24.3851 23.036450000000002,-25.00635 23.0681,-25.0345 25.9334,-27.587600000000002 26.622349999999997,-28.208750000000002 26.65985,-28.24205 29.136850000000003,-30.43955 29.4655,-30.72755 30.1456,-31.332949999999997 30.21365,-31.392 32.13385,-33.0582 32.976600000000005,-33.786649999999995 33.629099999999994,-34.3661 33.7258,-34.448 36.5159,-36.82085 37.16885,-37.4007 37.2171,-37.44285 39.7984,-39.71495 39.93385,-39.834649999999996 40.6342,-40.45805 40.73255,-40.54105 42.9022,-42.38575 43.60675,-42.9893 44.28315,-43.596000000000004 44.34955,-43.65345 46.8971,-45.8667 47.573949999999996,-46.4738 47.6225,-46.516450000000006 50.4196,-48.9771 50.5739,-49.1152 51.0702,-49.55815 51.13825,-49.6171 53.64375,-51.7888 53.88555,-52.001 54.57405,-52.62165 54.62035,-52.662400000000005 57.2722,-54.999449999999996 57.9926,-55.648849999999996 60.779250000000005,-58.096199999999996 61.4996,-58.745599999999996 61.783199999999994,-58.99095 64.30055,-61.14945 64.67255,-61.480050000000006 64.96275,-61.73925 65.01275,-61.783 67.88645,-64.30595 67.88804999999999,-64.30735" speed="36.11111111111111" width="3.448898331351622"/>
		<lane allow="pedestrian rail private passenger ship delivery vip emergency bicycle rail_electric army rail_urban trailer coach custom2 tram taxi evehicle custom1 motorcycle authority hov moped" index="2" length="153.35717359628427" shape="-45.35705,39.374849999999995 -43.846599999999995,38.0232 -39.8809,34.5535 -36.90705,31.935200000000002 -35.78405,30.9433 -32.80595,28.34585 -28.9912,25.01605 -25.995449999999998,22.4099 -24.88795,21.433149999999998 -21.91805,18.81535 -17.39215,14.81205 -17.36165,14.785499999999999 -14.38015,12.1843 -13.78755,11.672049999999999 -10.7859,9.085650000000001 -6.5014,5.4 -3.51295,2.8065999999999995 4.134,-3.9099500000000003 4.16685,-3.9384500000000005 7.16165,-6.537800000000001 8.70125,-7.8376 11.013850000000001,-9.7954 11.683800000000002,-10.37775 14.007449999999999,-12.4295 19.3633,-17.22475 19.40445,-17.26085 22.3348,-19.80815 22.3497,-19.8214 30.20275,-26.8206 31.361649999999997,-27.84075 31.391650000000002,-27.866799999999998 33.201499999999996,-29.44045 34.31365,-30.387349999999998 41.8671,-36.7966 41.91475,-36.8378 42.2007,-37.084999999999994 44.9024,-39.4335 45.2275,-39.7252 52.5342,-46.3069 52.86775,-46.599000000000004 52.885,-46.61395 55.53215,-48.9152 55.889300000000006,-49.22995 63.6944,-56.18825 63.944649999999996,-56.408649999999994 63.9739,-56.4341 66.69784999999999,-58.80225 66.92345,-58.99625 70.15289999999999,-61.7713" speed="36.11111111111111" width="3.216879682238673"/>
		<lane allow="pedestrian rail private passenger ship delivery vip emergency bicycle rail_electric army rail_urban trailer coach custom2 tram taxi evehicle custom1 motorcycle authority truck hov moped" index="3" length="153.35717359628427" shape="-43.174549999999996,41.949299999999994 -41.7312,40.6499 -41.6602,40.587500000000006 -38.48035,37.7856 -35.5523,35.11555 -33.66905,33.4639 -33.63205,33.43185 -30.641849999999998,30.842550000000003 -27.4211,28.0521 -27.4099,28.042299999999997 -24.419400000000003,25.440800000000003 -22.64715,23.8783 -19.673949999999998,21.2594 -16.4786,18.43495 -13.49265,15.8302 -11.61,14.1644 -8.63805,11.54415 -5.238849999999999,8.5525 -2.2462,5.95545 5.8218499999999995,-1.00355 5.8343,-1.0144000000000002 8.82495,-3.60965 10.796050000000001,-5.30575 13.7932,-7.88885 17.09265,-10.776299999999999 17.1325,-10.8117 20.08325,-13.4162 20.1142,-13.4438 21.5956,-14.7637 24.5742,-17.37725 28.09375,-20.50495 31.043550000000003,-23.102 31.0802,-23.13485 32.4242,-24.33745 35.39335,-26.96175 38.88225,-29.979149999999997 41.8994,-32.54675 44.048,-34.3715 47.03625,-36.963300000000004 50.582049999999995,-40.1268 53.53735,-42.7701 54.6332,-43.749449999999996 54.706649999999996,-43.813199999999995 57.696200000000005,-46.408699999999996 61.427499999999995,-49.6882 64.4054,-52.31105 64.4324,-52.335049999999995 65.93115,-53.6653 68.91155,-56.276650000000004 72.37835,-59.279399999999995" speed="36.11111111111111" width="3.0495992130114464"/>
		<lane allow="pedestrian rail private passenger ship delivery vip emergency bicycle rail_electric army rail_urban trailer coach custom2 tram taxi evehicle custom1 motorcycle authority hov moped" index="4" length="153.35717359628427" shape="-41.0383,44.4692 -36.30475,40.405 -36.18775,40.298249999999996 -33.44885,37.7442 -25.478900000000003,30.827399999999997 -25.19735,30.58365 -22.49205,28.232 -22.20415,27.9811 -14.423200000000001,21.1107 -14.299150000000001,21.00125 -14.265799999999999,20.97225 -11.389,18.471049999999998 -11.26,18.35735 -3.1545500000000004,11.12145 -3.1227,11.093 -3.0724,11.049199999999999 -0.14224999999999993,8.50165 -0.08089999999999997,8.4483 7.989,1.4704 8.1266,1.3506999999999998 10.9784,-1.12835 11.12845,-1.2576 19.2488,-8.25055 19.3507,-8.33845 22.229,-10.840499999999999 22.354100000000003,-10.9506 30.3215,-18.018900000000002 33.2984,-20.60675 40.9979,-27.438650000000003 41.032650000000004,-27.469050000000003 41.24305,-27.65305 44.015299999999996,-30.0629 44.23935,-30.25725 52.621849999999995,-37.45115 52.6456,-37.4718 52.892250000000004,-37.68545 55.63165,-40.0668 55.907799999999995,-40.31225 63.545550000000006,-47.073750000000004 63.68965,-47.1988 66.53370000000001,-49.67105 66.68010000000001,-49.79835 74.6272,-56.761250000000004" speed="36.11111111111111" width="3.280122596794209"/>
		<lane allow="pedestrian rail private passenger ship delivery vip emergency bicycle rail_electric army rail_urban trailer coach custom2 tram taxi evehicle custom1 motorcycle authority hov moped" index="5" length="153.35717359628427" shape="-38.83875,47.0638 -34.06355,43.015600000000006 -33.82855,42.80925 -33.71015,42.699 -31.0991,40.26935 -30.7587,39.96355 -23.2403,33.406549999999996 -22.8519,33.06835 -20.25225,30.80855 -19.871299999999998,30.4766 -12.098849999999999,23.687350000000002 -11.7116,23.34995 -9.11195,21.090049999999998 -8.771799999999999,20.790799999999997 -8.7396,20.76215 -0.8318,13.71485 -0.4592,13.387049999999999 2.1405,11.12715 2.5281,10.79 10.38635,3.9482 10.776,3.6092500000000003 13.37565,1.34935 13.767700000000001,1.00885 21.4682,-5.67385 21.85805,-6.012449999999999 24.459899999999998,-8.274149999999999 24.80605,-8.578299999999999 24.83445,-8.60355 32.5783,-15.4842 32.9531,-15.81345 35.55275,-18.073349999999998 35.92755,-18.4004 35.937749999999994,-18.40935 43.5186,-25.051250000000003 43.9036,-25.38725 46.503299999999996,-27.64705 46.90975,-27.99655 54.9221,-34.81555 55.3009,-35.1412 55.3283,-35.165049999999994 57.9281,-37.42475 58.236850000000004,-37.69815 58.28885,-37.74525 65.7926,-44.5372 66.15405000000001,-44.8574 68.75370000000001,-47.11725 69.1445,-47.456950000000006 76.90885,-54.20635" speed="36.11111111111111" width="3.4808961274361536"/>
	</edge>
	<edge from="2" function="normal" id="24" length="22.719565734072" numLanes="5" priority="1" speed="36.11111111111111" spreadType="center" to="3">
		<lane allow="pedestrian rail private passenger ship delivery vip emergency bicycle rail_electric army rail_urban trailer coach bus custom2 tram taxi evehicle custom1 motorcycle authority truck hov moped" index="0" length="22.719565734072" shape="67.88804999999999,-64.30735 72.60055,-68.42145 75.58529999999999,-71.02690000000001 75.5971,-71.03725 83.7182,-78.15995000000001 85.22385,-79.47435" speed="36.11111111111111" width="3.5077425703719927"/>
		<lane allow="pedestrian rail private passenger ship delivery vip emergency bicycle rail_electric army rail_urban trailer coach custom2 tram taxi evehicle custom1 motorcycle authority hov moped" index="1" length="22.719565734072" shape="70.15289999999999,-61.7713 74.8349,-65.79525 74.94980000000001,-65.89385 74.97875,-65.91900000000001 77.8698,-68.4319 77.9513,-68.5031 85.94964999999999,-75.50800000000001 85.98545,-75.53925000000001 85.9971,-75.54939999999999 87.4739,-76.8332" speed="36.11111111111111" width="3.29257951764267"/>
		<lane allow="pedestrian rail private passenger ship delivery vip emergency bicycle rail_electric army rail_urban trailer coach custom2 tram taxi evehicle custom1 motorcycle authority truck hov moped" index="2" length="22.719565734072" shape="72.37835,-59.279399999999995 72.681,-59.540949999999995 75.68610000000001,-62.1233 77.1824,-63.4392 80.1435,-66.071 83.77465000000001,-69.30665 86.75545,-71.9048 88.0324,-72.9991 89.5997,-74.33795" speed="36.11111111111111" width="3.0882460038021615"/>
		<lane allow="pedestrian rail private passenger ship delivery vip emergency bicycle rail_electric army rail_urban trailer coach custom2 tram taxi evehicle custom1 motorcycle authority hov moped" index="3" length="22.719565734072" shape="74.6272,-56.761250000000004 74.8597,-56.965050000000005 74.87790000000001,-56.980850000000004 74.97739999999999,-57.067499999999995 77.86995,-59.58195 85.7005,-66.64815 85.86565,-66.79560000000001 85.9204,-66.84335 88.73415,-69.29034999999999 88.87255,-69.40960000000001 88.9083,-69.43975 91.7355,-71.83095" speed="36.11111111111111" width="3.362910776395953"/>
		<lane allow="pedestrian rail private passenger ship delivery vip emergency bicycle rail_electric army rail_urban trailer coach custom2 tram taxi evehicle custom1 motorcycle authority hov moped" index="4" length="22.719565734072" shape="76.90885,-54.20635 77.227,-54.48295 77.61779999999999,-54.822649999999996 80.21745000000001,-57.082449999999994 80.54565,-57.372 80.58535,-57.4076 88.04035,-64.0904 88.40875,-64.41534999999999 91.0084,-66.67525 91.41409999999999,-67.02425 93.97315,-69.20439999999999" speed="36.11111111111111" width="3.482194384292757"/>
	</edge>
	<edge from="2" function="normal" id="74" length="23.133102580054487" numLanes="1" priority="1" speed="36.11111111111111" spreadType="center" to="4">
		<lane allow="pedestrian rail private passenger ship delivery vip emergency bicycle rail_electric army rail_urban trailer coach bus custom2 tram taxi evehicle custom1 motorcycle authority truck hov moped" index="0" length="23.133102580054487" shape="65.37440000000001,-67.122 70.77590000000001,-71.99719999999999 82.47425000000001,-82.70179999999999" speed="36.11111111111111" width="3.9632723701506993"/>
	</edge>
</edges>
