<routes>
	<vehicle depart="0.1" departLane="2" departPos="73.5686090641631" departSpeed="14.419" id="25" type="passenger">
		<route edges="73 24"/>
	</vehicle>
	<vehicle depart="0.1" departLane="1" departPos="60.41774221226615" departSpeed="14.2866" id="31" type="passenger">
		<route edges="73 73 24"/>
	</vehicle>
	<vehicle depart="0.1" departLane="1" departPos="74.47599670280461" departSpeed="10.4319" id="33" type="passenger">
		<route edges="73 24"/>
	</vehicle>
	<vehicle depart="0.1" departLane="2" departPos="96.50789483942683" departSpeed="12.3193" id="34" type="passenger">
		<route edges="73 24"/>
	</vehicle>
	<vehicle depart="0.1" departLane="4" departPos="95.05588630189585" departSpeed="14.15" id="37" type="passenger">
		<route edges="73 24"/>
	</vehicle>
	<vehicle depart="0.1" departLane="5" departPos="91.79001806522412" departSpeed="12.3765" id="39" type="passenger">
		<route edges="73 24"/>
	</vehicle>
	<vehicle depart="0.1" departLane="1" departPos="86.1999482571692" departSpeed="11.5964" id="42" type="passenger">
		<route edges="73 24"/>
	</vehicle>
	<vehicle depart="0.1" departLane="5" departPos="83.21896859398936" departSpeed="12.9598" id="43" type="passenger">
		<route edges="73 24"/>
	</vehicle>
	<vehicle depart="0.1" departLane="3" departPos="48.96070037233797" departSpeed="20.5234" id="44" type="passenger">
		<route edges="73 24"/>
	</vehicle>
	<vehicle depart="0.1" departLane="3" departPos="71.74243108185208" departSpeed="16.9809" id="47" type="passenger">
		<route edges="73 24"/>
	</vehicle>
	<vehicle depart="0.1" departLane="4" departPos="65.73298547721377" departSpeed="15.7653" id="49" type="passenger">
		<route edges="73 24"/>
	</vehicle>
	<vehicle depart="0.1" departLane="0" departPos="38.8965395945837" departSpeed="19.9933" id="53" type="passenger">
		<route edges="73 74"/>
	</vehicle>
	<vehicle depart="0.1" departLane="5" departPos="58.5799842161427" departSpeed="15.8689" id="54" type="passenger">
		<route edges="73 24"/>
	</vehicle>
</routes>
