<routes>
	<vehicle depart="0.1" departLane="0" departPos="21.21982086961627" departSpeed="1.9822744" id="38" type="passenger">
		<route edges=":21_10 4508"/>
	</vehicle>
	<vehicle depart="0.1" departLane="0" departPos="12.13513445719778" departSpeed="1.8165782" id="311" type="passenger">
		<route edges=":21_2 4508"/>
	</vehicle>
	<vehicle depart="0.1" departLane="0" departPos="54.18770570227092" departSpeed="0.27151927" id="312" type="passenger">
		<route edges="3399 4508"/>
	</vehicle>
	<vehicle depart="0.1" departLane="0" departPos="46.686345141671275" departSpeed="0.076655013" id="313" type="passenger">
		<route edges="3399 4508"/>
	</vehicle>
	<vehicle depart="0.1" departLane="0" departPos="37.29559924590924" departSpeed="0.11321697" id="314" type="passenger">
		<route edges="3399 4508"/>
	</vehicle>
	<vehicle depart="0.1" departLane="0" departPos="27.415627494688387" departSpeed="0.0073047132" id="317" type="passenger">
		<route edges="4511 4508"/>
	</vehicle>
	<vehicle depart="0.1" departLane="0" departPos="19.450748698772806" departSpeed="0.50145077" id="319" type="passenger">
		<route edges="4511 4508"/>
	</vehicle>
	<vehicle depart="0.1" departLane="0" departPos="11.238256817591822" departSpeed="6.2744566" id="345" type="passenger">
		<route edges="4059 3398"/>
	</vehicle>
	<vehicle depart="0.1" departLane="0" departPos="1.25" departSpeed="13.050523" id="338" type="motorcycle">
		<route edges=":21_8 4512 4385"/>
	</vehicle>
	<vehicle depart="0.1" departLane="0" departPos="29.79328596768692" departSpeed="0.12206898" id="30" type="truck">
		<route edges="3399 4508"/>
	</vehicle>
</routes>
