<routes>
	<vehicle depart="0.1" departLane="0" departPos="17.66458280104828" departSpeed="4.2664932" id="37" type="bicycle">
		<route edges=":33_0 6906 6912"/>
	</vehicle>
	<vehicle depart="0.1" departLane="0" departPos="11.368428011022447" departSpeed="0.15676667" id="335" type="bicycle">
		<route edges=":33_0 6906"/>
	</vehicle>
	<vehicle depart="0.1" departLane="0" departPos="69.7736880689791" departSpeed="0.0" id="311" type="passenger">
		<route edges="6938 6906"/>
	</vehicle>
	<vehicle depart="0.1" departLane="0" departPos="16.958076807616607" departSpeed="5.2035449" id="312" type="passenger">
		<route edges=":33_0 6906 6909"/>
	</vehicle>
	<vehicle depart="0.1" departLane="0" departPos="62.27260703029478" departSpeed="0.0" id="314" type="passenger">
		<route edges="6938 6906"/>
	</vehicle>
	<vehicle depart="0.1" departLane="0" departPos="54.43957290842468" departSpeed="2.3658137" id="331" type="passenger">
		<route edges="6903 6906"/>
	</vehicle>
	<vehicle depart="0.1" departLane="0" departPos="38.52117604233913" departSpeed="1.8990198" id="342" type="passenger">
		<route edges="6903 6906"/>
	</vehicle>
	<vehicle depart="0.1" departLane="0" departPos="22.914826453656985" departSpeed="2.0659626" id="346" type="passenger">
		<route edges="6903 6906"/>
	</vehicle>
	<vehicle depart="0.1" departLane="0" departPos="2.5" departSpeed="1.6067915" id="351" type="passenger">
		<route edges="6903 6906"/>
	</vehicle>
	<vehicle depart="0.1" departLane="0" departPos="3.87677428412596" departSpeed="2.144101" id="339" type="motorcycle">
		<route edges=":33_1 6937"/>
	</vehicle>
</routes>
