<routes>
	<vehicle depart="0.1" departLane="0" departPos="6.073131404958782" departSpeed="1.9424796" id="39" type="bicycle">
		<route edges=":31_1 18162"/>
	</vehicle>
	<vehicle depart="0.1" departLane="0" departPos="8.139633507737297" departSpeed="8.2348436" id="312" type="passenger">
		<route edges="18123 18125"/>
	</vehicle>
	<vehicle depart="0.1" departLane="0" departPos="12.843162873501111" departSpeed="0.0" id="313" type="passenger">
		<route edges=":31_1 18162"/>
	</vehicle>
	<vehicle depart="0.1" departLane="0" departPos="27.828865458589654" departSpeed="2.6123699" id="327" type="passenger">
		<route edges=":29_3 18125"/>
	</vehicle>
	<vehicle depart="0.1" departLane="0" departPos="71.75531156295422" departSpeed="2.090982" id="332" type="passenger">
		<route edges="17953 18125"/>
	</vehicle>
	<vehicle depart="0.1" departLane="0" departPos="55.78409192711681" departSpeed="3.8582134" id="335" type="passenger">
		<route edges="17953 18125"/>
	</vehicle>
	<vehicle depart="0.1" departLane="0" departPos="28.063878857377656" departSpeed="5.9205084" id="338" type="passenger">
		<route edges="17953 18125"/>
	</vehicle>
	<vehicle depart="0.1" departLane="0" departPos="7.936307318284579" departSpeed="3.8805191" id="341" type="passenger">
		<route edges=":31_0 18162"/>
	</vehicle>
	<vehicle depart="0.1" departLane="0" departPos="24.0632117004476" departSpeed="17.282689" id="346" type="passenger">
		<route edges="18160 18162"/>
	</vehicle>
</routes>
