<routes>
	<vehicle depart="0.1" departLane="0" departPos="12.37419136197164" departSpeed="3.2767388" id="314" type="passenger">
		<route edges=":101_2 60400 59144"/>
	</vehicle>
	<vehicle depart="0.1" departLane="0" departPos="8.923481142454142" departSpeed="2.6318837" id="338" type="passenger">
		<route edges=":108_0 59144"/>
	</vehicle>
	<vehicle depart="0.1" departLane="0" departPos="20.174861398654315" departSpeed="2.3858765" id="354" type="passenger">
		<route edges="60402 59144"/>
	</vehicle>
	<vehicle depart="0.1" departLane="0" departPos="18.496005654929256" departSpeed="0.64681165" id="362" type="passenger">
		<route edges="65293 60402"/>
	</vehicle>
	<vehicle depart="0.1" departLane="0" departPos="16.925457002998066" departSpeed="7.3946167" id="34" type="motorcycle">
		<route edges=":98_2 60397 60400"/>
	</vehicle>
	<vehicle depart="0.1" departLane="0" departPos="21.414347495942316" departSpeed="4.4354115" id="324" type="motorcycle">
		<route edges=":108_1 60399 60396"/>
	</vehicle>
	<vehicle depart="0.1" departLane="0" departPos="4.914598539568354" departSpeed="3.5962789" id="344" type="motorcycle">
		<route edges="60402 59144"/>
	</vehicle>
</routes>
