<!-- generated on Tue Feb  9 22:17:57 2021 by Eclipse SUMO netconvert Version 1.8.0
<configuration xmlns:xsi="http://www.w3.org/2001/XMLSchema-instance" xsi:noNamespaceSchemaLocation="http://sumo.dlr.de/xsd/netconvertConfiguration.xsd">

    <input>
        <node-files value="./converted_scenarios/scenario-factory/ESP_Toledo-8_3_I-1-1/ESP_Toledo-8_3_I-1-1.nod.xml"/>
        <edge-files value="./converted_scenarios/scenario-factory/ESP_Toledo-8_3_I-1-1/ESP_Toledo-8_3_I-1-1.edg.xml"/>
        <connection-files value="./converted_scenarios/scenario-factory/ESP_Toledo-8_3_I-1-1/ESP_Toledo-8_3_I-1-1.con.xml"/>
        <tllogic-files value="./converted_scenarios/scenario-factory/ESP_Toledo-8_3_I-1-1/ESP_Toledo-8_3_I-1-1.tll.xml"/>
        <type-files value="/home/zen/commonroad-interactive-benchmarks/install/commonroad-map-tool/crmapconverter/sumo_map/templates/DEU.typ.xml"/>
    </input>

    <output>
        <output-file value="./converted_scenarios/scenario-factory/ESP_Toledo-8_3_I-1-1/ESP_Toledo-8_3_I-1-1.net.xml"/>
    </output>

    <processing>
        <geometry.remove.keep-edges.explicit value="true"/>
        <geometry.avoid-overlap value="true"/>
        <offset.disable-normalization value="true"/>
    </processing>

    <junctions>
        <no-turnarounds value="true"/>
        <junctions.internal-link-detail value="20"/>
    </junctions>

    <report>
        <aggregate-warnings value="5"/>
    </report>

    <random_number>
        <seed value="1234"/>
    </random_number>

</configuration>
--><net xmlns:xsi="http://www.w3.org/2001/XMLSchema-instance" version="1.6" junctionCornerDetail="5" junctionLinkDetail="20" limitTurnSpeed="5.50" xsi:noNamespaceSchemaLocation="http://sumo.dlr.de/xsd/net_file.xsd">

    <location netOffset="0.00,0.00" convBoundary="-1010.00,4.20,-720.44,301.84" origBoundary="-1010.00,4.20,-710.58,301.84" projParameter="!"/>

    <type id="highway.bridleway" priority="1" speed="2.78" allow="pedestrian" oneway="1" width="2.00"/>
    <type id="highway.bus_guideway" priority="1" speed="27.78" allow="bus" oneway="1"/>
    <type id="highway.cycleway" priority="1" speed="8.33" allow="bicycle" oneway="0" width="1.00"/>
    <type id="highway.footway" priority="1" speed="2.78" allow="pedestrian" oneway="1" width="2.00"/>
    <type id="highway.ford" priority="1" speed="2.78" allow="army" oneway="0"/>
    <type id="highway.living_street" priority="2" speed="2.78" disallow="tram rail_urban rail rail_electric rail_fast ship" oneway="0"/>
    <type id="highway.motorway" priority="14" speed="39.44" allow="private emergency authority army vip passenger hov taxi bus coach delivery truck trailer motorcycle evehicle custom1 custom2" oneway="1"/>
    <type id="highway.motorway_link" priority="9" speed="22.22" allow="private emergency authority army vip passenger hov taxi bus coach delivery truck trailer motorcycle evehicle custom1 custom2" oneway="1"/>
    <type id="highway.path" priority="1" speed="2.78" allow="pedestrian bicycle" oneway="0" width="2.00"/>
    <type id="highway.pedestrian" priority="1" speed="2.78" allow="pedestrian" oneway="1" width="2.00"/>
    <type id="highway.primary" priority="12" speed="27.78" disallow="pedestrian tram rail_urban rail rail_electric rail_fast ship" oneway="0"/>
    <type id="highway.primary_link" priority="7" speed="22.22" disallow="pedestrian tram rail_urban rail rail_electric rail_fast ship" oneway="0"/>
    <type id="highway.raceway" priority="15" speed="83.33" allow="vip" oneway="0"/>
    <type id="highway.residential" priority="3" speed="13.89" disallow="pedestrian tram rail_urban rail rail_electric rail_fast ship" oneway="0"/>
    <type id="highway.secondary" priority="11" speed="27.78" disallow="pedestrian tram rail_urban rail rail_electric rail_fast ship" oneway="0"/>
    <type id="highway.secondary_link" priority="6" speed="22.22" disallow="pedestrian tram rail_urban rail rail_electric rail_fast ship" oneway="0"/>
    <type id="highway.service" priority="1" speed="5.56" allow="pedestrian delivery bicycle" oneway="0"/>
    <type id="highway.stairs" priority="1" speed="1.39" allow="pedestrian" oneway="1" width="2.00"/>
    <type id="highway.step" priority="1" speed="1.39" allow="pedestrian" oneway="1" width="2.00"/>
    <type id="highway.steps" priority="1" speed="1.39" allow="pedestrian" oneway="1" width="2.00"/>
    <type id="highway.tertiary" priority="10" speed="22.22" disallow="pedestrian tram rail_urban rail rail_electric rail_fast ship" oneway="0"/>
    <type id="highway.tertiary_link" priority="5" speed="22.22" disallow="pedestrian tram rail_urban rail rail_electric rail_fast ship" oneway="0"/>
    <type id="highway.track" priority="1" speed="5.56" allow="pedestrian motorcycle moped bicycle" oneway="0"/>
    <type id="highway.trunk" priority="13" speed="27.78" disallow="pedestrian bicycle tram rail_urban rail rail_electric rail_fast ship" oneway="0"/>
    <type id="highway.trunk_link" priority="8" speed="22.22" disallow="pedestrian bicycle tram rail_urban rail rail_electric rail_fast ship" oneway="0"/>
    <type id="highway.unclassified" priority="4" speed="13.89" disallow="pedestrian tram rail_urban rail rail_electric rail_fast ship" oneway="0"/>
    <type id="highway.unsurfaced" priority="1" speed="8.33" disallow="tram rail_urban rail rail_electric rail_fast ship" oneway="0"/>
    <type id="railway.highspeed" priority="21" speed="69.44" allow="rail_fast" oneway="1"/>
    <type id="railway.light_rail" priority="19" speed="27.78" allow="rail_urban" oneway="1"/>
    <type id="railway.preserved" priority="16" speed="27.78" allow="rail" oneway="1"/>
    <type id="railway.rail" priority="20" speed="44.44" allow="rail" oneway="1"/>
    <type id="railway.subway" priority="18" speed="27.78" allow="rail_urban" oneway="1"/>
    <type id="railway.tram" priority="17" speed="13.89" allow="tram" oneway="1"/>

    <edge id=":100_0" function="internal">
        <lane id=":100_0_0" index="0" disallow="pedestrian tram rail_urban rail rail_electric rail_fast ship" speed="6.83" length="12.43" width="3.49" shape="-854.05,167.92 -855.58,165.30 -857.04,163.36 -857.91,162.52 -858.94,161.88 -859.52,161.71 -860.13,161.70 -860.71,161.86 -861.23,162.17 -862.73,163.67"/>
    </edge>
    <edge id=":100_1" function="internal">
        <lane id=":100_1_0" index="0" disallow="pedestrian tram rail_urban rail rail_electric rail_fast ship" speed="36.11" length="22.13" width="3.50" shape="-854.05,167.92 -854.55,166.95 -856.76,162.15 -859.43,155.28 -862.12,147.34"/>
    </edge>
    <edge id=":100_2" function="internal">
        <lane id=":100_2_0" index="0" disallow="pedestrian tram rail_urban rail rail_electric rail_fast ship" speed="36.11" length="21.51" width="3.50" shape="-858.79,146.28 -856.16,154.04 -853.56,160.73 -851.42,165.38 -850.95,166.29"/>
    </edge>
    <edge id=":100_3" function="internal">
        <lane id=":100_3_0" index="0" disallow="pedestrian tram rail_urban rail rail_electric rail_fast ship" speed="11.57" length="18.96" width="3.49" shape="-858.79,146.28 -858.10,148.91 -857.74,151.61 -857.74,153.79 -858.06,155.95 -858.71,158.03 -859.69,159.98 -860.96,161.76 -862.73,163.67"/>
    </edge>
    <edge id=":101_0" function="internal">
        <lane id=":101_0_0" index="0" disallow="pedestrian tram rail_urban rail rail_electric rail_fast ship" speed="7.84" length="13.51" width="3.49" shape="-828.63,214.83 -830.73,211.48 -832.47,209.27 -833.69,208.09 -834.61,207.45 -835.64,207.00 -836.20,206.90 -836.76,206.91 -837.31,207.03 -838.30,207.52"/>
    </edge>
    <edge id=":101_1" function="internal">
        <lane id=":101_1_0" index="0" disallow="pedestrian tram rail_urban rail rail_electric rail_fast ship" speed="36.11" length="22.45" width="3.50" shape="-828.63,214.83 -838.56,197.12 -839.57,195.23"/>
    </edge>
    <edge id=":101_2" function="internal">
        <lane id=":101_2_0" index="0" disallow="pedestrian tram rail_urban rail rail_electric rail_fast ship" speed="36.11" length="22.35" width="3.50" shape="-836.49,193.58 -835.48,195.45 -825.59,213.09"/>
    </edge>
    <edge id=":101_3" function="internal">
        <lane id=":101_3_0" index="0" disallow="pedestrian tram rail_urban rail rail_electric rail_fast ship" speed="8.42" length="16.04" width="3.49" shape="-836.49,193.58 -835.22,196.29 -834.48,198.56 -834.18,200.32 -834.19,202.11 -834.43,203.27 -834.88,204.38 -835.54,205.37 -836.83,206.60 -838.30,207.52"/>
    </edge>
    <edge id=":102_0" function="internal">
        <lane id=":102_0_0" index="0" disallow="pedestrian tram rail_urban rail rail_electric rail_fast ship" speed="27.93" length="48.72" width="3.50" shape="-756.07,124.37 -756.65,125.27 -760.78,131.32 -764.60,136.35 -768.71,141.15 -772.39,144.96 -776.32,148.52 -779.66,151.16 -783.19,153.58 -786.89,155.73 -790.75,157.56"/>
    </edge>
    <edge id=":102_1" function="internal">
        <lane id=":102_1_0" index="0" disallow="pedestrian tram rail_urban rail rail_electric rail_fast ship" speed="13.64" length="42.97" width="3.50" shape="-783.08,120.44 -781.28,125.19 -780.16,128.82 -779.28,132.51 -778.72,136.26 -778.57,138.78 -778.63,141.31 -778.96,143.81 -779.59,146.26 -780.55,148.60 -781.84,150.77 -783.45,152.72 -785.32,154.42 -787.40,155.86 -789.62,157.05 -790.75,157.56"/>
    </edge>
    <edge id=":102_2" function="internal">
        <lane id=":102_2_0" index="0" disallow="pedestrian tram rail_urban rail rail_electric rail_fast ship" speed="12.76" length="37.47" width="3.50" shape="-792.14,154.35 -791.16,153.91 -789.23,152.86 -787.48,151.63 -785.94,150.19 -784.64,148.55 -783.61,146.72 -782.86,144.74 -782.38,142.65 -782.14,140.49 -782.12,138.29 -782.28,136.08 -782.82,132.72 -783.63,129.40 -784.66,126.12 -786.31,121.77"/>
    </edge>
    <edge id=":102_3" function="internal">
        <lane id=":102_3_0" index="0" disallow="pedestrian tram rail_urban rail rail_electric rail_fast ship" speed="27.33" length="46.63" width="3.50" shape="-792.14,154.35 -788.47,152.61 -784.96,150.57 -781.63,148.26 -778.45,145.74 -774.71,142.33 -771.19,138.68 -767.24,134.05 -763.57,129.21 -759.57,123.34 -759.03,122.49"/>
    </edge>
    <edge id=":103_0" function="internal">
        <lane id=":103_0_0" index="0" disallow="pedestrian tram rail_urban rail rail_electric rail_fast ship" speed="36.11" length="6.57" width="3.50" shape="-840.79,208.84 -846.59,211.93"/>
    </edge>
    <edge id=":103_1" function="internal">
        <lane id=":103_1_0" index="0" disallow="pedestrian tram rail_urban rail rail_electric rail_fast ship" speed="10.91" length="27.53" width="3.50" shape="-851.71,195.21 -850.45,197.86 -849.48,200.62 -848.99,202.91 -848.84,205.25 -848.99,207.00 -849.39,208.71 -850.04,210.34 -850.92,211.87 -852.39,213.69 -854.12,215.27 -856.52,216.95 -858.57,218.08"/>
    </edge>
    <edge id=":104_0" function="internal">
        <lane id=":104_0_0" index="0" disallow="pedestrian tram rail_urban rail rail_electric rail_fast ship" speed="27.65" length="11.69" width="3.50" shape="-875.53,174.08 -878.18,175.97 -881.73,178.96 -884.46,181.59"/>
    </edge>
    <edge id=":104_1" function="internal">
        <lane id=":104_1_0" index="0" disallow="pedestrian tram rail_urban rail rail_electric rail_fast ship" speed="19.31" length="11.11" width="3.50" shape="-879.88,171.13 -881.81,175.17 -884.32,179.61 -885.17,180.89"/>
    </edge>
    <edge id=":105_0" function="internal">
        <lane id=":105_0_0" index="0" disallow="pedestrian tram rail_urban rail rail_electric rail_fast ship" speed="5.82" length="5.16" width="3.50" shape="-948.23,208.58 -948.44,208.30 -950.34,206.30 -951.94,205.02"/>
    </edge>
    <edge id=":105_1" function="internal">
        <lane id=":105_1_0" index="0" disallow="pedestrian tram rail_urban rail rail_electric rail_fast ship" speed="36.11" length="15.69" width="3.50" shape="-936.08,202.09 -936.43,202.10 -947.61,201.99 -951.77,201.82"/>
    </edge>
    <edge id=":106_0" function="internal">
        <lane id=":106_0_0" index="0" disallow="pedestrian tram rail_urban rail rail_electric rail_fast ship" speed="36.11" length="27.76" width="3.50" shape="-876.32,103.60 -880.80,89.33 -884.37,77.03"/>
    </edge>
    <edge id=":106_1" function="internal">
        <lane id=":106_1_0" index="0" disallow="pedestrian tram rail_urban rail rail_electric rail_fast ship" speed="36.11" length="27.63" width="3.50" shape="-881.01,76.07 -877.45,88.32 -872.99,102.51"/>
    </edge>
    <edge id=":106_2" function="internal">
        <lane id=":106_2_0" index="0" disallow="pedestrian tram rail_urban rail rail_electric rail_fast ship" speed="8.94" length="18.02" width="3.50" shape="-885.58,92.31 -882.13,91.06 -881.95,90.57 -881.85,88.98 -882.15,86.34 -883.14,81.66 -884.37,77.03"/>
    </edge>
    <edge id=":106_3" function="internal">
        <lane id=":106_3_0" index="0" disallow="pedestrian tram rail_urban rail rail_electric rail_fast ship" speed="9.41" length="19.23" width="3.50" shape="-885.58,92.31 -881.40,91.19 -880.26,91.32 -879.22,91.77 -878.30,92.45 -877.13,93.72 -875.88,95.64 -874.61,98.21 -873.18,101.96 -872.99,102.51"/>
    </edge>
    <edge id=":107_0" function="internal">
        <lane id=":107_0_0" index="0" disallow="pedestrian tram rail_urban rail rail_electric rail_fast ship" speed="5.07" length="5.68" width="3.50" shape="-927.70,250.74 -929.57,250.67 -931.29,250.24 -932.35,249.70 -933.00,249.16"/>
    </edge>
    <edge id=":107_1" function="internal">
        <lane id=":107_1_0" index="0" disallow="pedestrian tram rail_urban rail rail_electric rail_fast ship" speed="6.39" length="7.46" width="3.50" shape="-937.90,256.19 -937.40,255.68 -936.08,253.88 -935.32,252.40 -934.80,250.82 -934.64,249.64"/>
    </edge>
    <edge id=":108_0" function="internal">
        <lane id=":108_0_0" index="0" disallow="pedestrian tram rail_urban rail rail_electric rail_fast ship" speed="9.29" length="17.72" width="3.50" shape="-811.79,244.80 -813.82,241.87 -815.70,239.67 -817.81,237.71 -819.71,236.39 -821.77,235.35 -823.97,234.66 -825.41,234.45"/>
    </edge>
    <edge id=":108_1" function="internal">
        <lane id=":108_1_0" index="0" disallow="pedestrian tram rail_urban rail rail_electric rail_fast ship" speed="36.11" length="34.14" width="3.50" shape="-811.79,244.80 -816.09,237.64 -822.06,226.80 -828.51,215.04"/>
    </edge>
    <edge id=":108_2" function="internal">
        <lane id=":108_2_0" index="0" disallow="pedestrian tram rail_urban rail rail_electric rail_fast ship" speed="36.11" length="33.89" width="3.50" shape="-825.47,213.30 -819.02,225.07 -813.08,235.85 -808.89,242.85"/>
    </edge>
    <edge id=":108_3" function="internal">
        <lane id=":108_3_0" index="0" disallow="pedestrian tram rail_urban rail rail_electric rail_fast ship" speed="9.17" length="19.38" width="3.50" shape="-825.47,213.30 -824.16,215.98 -823.41,218.24 -823.00,220.58 -822.97,222.36 -823.21,224.13 -823.71,225.84 -824.46,227.46 -825.76,229.44 -827.18,231.04"/>
    </edge>
    <edge id=":109_0" function="internal">
        <lane id=":109_0_0" index="0" disallow="pedestrian tram rail_urban rail rail_electric rail_fast ship" speed="36.11" length="13.68" width="3.50" shape="-872.46,147.94 -871.44,151.70 -869.15,159.07 -868.42,161.00"/>
    </edge>
    <edge id=":109_1" function="internal">
        <lane id=":109_1_0" index="0" disallow="pedestrian tram rail_urban rail rail_electric rail_fast ship" speed="11.76" length="9.00" width="3.50" shape="-874.07,148.39 -874.06,148.55 -874.28,152.67 -874.89,156.75 -875.03,157.32"/>
    </edge>
    <edge id=":110_0" function="internal">
        <lane id=":110_0_0" index="0" disallow="pedestrian tram rail_urban rail rail_electric rail_fast ship" speed="4.06" length="2.78" width="3.50" shape="-852.97,249.66 -853.53,251.12 -853.80,252.31"/>
    </edge>
    <edge id=":110_1" function="internal">
        <lane id=":110_1_0" index="0" disallow="pedestrian tram rail_urban rail rail_electric rail_fast ship" speed="36.11" length="10.52" width="3.50" shape="-854.56,246.61 -862.65,250.71 -863.95,251.35"/>
    </edge>
    <edge id=":111_0" function="internal">
        <lane id=":111_0_0" index="0" disallow="pedestrian tram rail_urban rail rail_electric rail_fast ship" speed="36.11" length="44.84" width="3.50" shape="-725.01,70.82 -732.27,84.73 -738.85,96.58 -744.71,106.44 -746.90,109.94"/>
    </edge>
    <edge id=":111_1" function="internal">
        <lane id=":111_1_0" index="0" disallow="pedestrian tram rail_urban rail rail_electric rail_fast ship" speed="18.08" length="42.48" width="3.50" shape="-752.26,69.26 -750.12,74.27 -747.82,80.38 -746.18,85.60 -745.13,89.89 -744.40,94.26 -744.13,97.63 -744.19,101.02 -744.47,103.33 -744.99,105.61 -745.80,107.85 -746.90,109.94"/>
    </edge>
    <edge id=":111_2" function="internal">
        <lane id=":111_2_0" index="0" disallow="pedestrian tram rail_urban rail rail_electric rail_fast ship" speed="17.35" length="39.08" width="3.50" shape="-749.88,108.10 -748.92,106.28 -748.25,104.34 -747.83,102.33 -747.62,100.28 -747.62,97.20 -747.91,94.12 -748.65,90.08 -749.66,86.09 -751.23,81.19 -753.42,75.42 -755.45,70.70"/>
    </edge>
    <edge id=":111_3" function="internal">
        <lane id=":111_3_0" index="0" disallow="pedestrian tram rail_urban rail rail_electric rail_fast ship" speed="36.11" length="44.52" width="3.50" shape="-749.88,108.10 -747.69,104.61 -741.88,94.82 -735.35,83.06 -728.15,69.26"/>
    </edge>
    <edge id=":112_0" function="internal">
        <lane id=":112_0_0" index="0" disallow="pedestrian tram rail_urban rail rail_electric rail_fast ship" speed="36.11" length="0.10" width="3.50" shape="-964.11,201.30 -964.11,201.30"/>
    </edge>
    <edge id=":114_0" function="internal">
        <lane id=":114_0_0" index="0" disallow="pedestrian tram rail_urban rail rail_electric rail_fast ship" speed="36.11" length="19.13" width="3.50" shape="-936.49,240.70 -938.67,233.22 -941.85,222.34"/>
    </edge>
    <edge id=":114_1" function="internal">
        <lane id=":114_1_0" index="0" disallow="pedestrian tram rail_urban rail rail_electric rail_fast ship" speed="7.44" length="12.02" width="3.50" shape="-942.80,234.06 -942.74,233.97 -942.02,232.37 -941.54,230.67 -941.24,228.34 -941.29,226.00 -941.72,223.09 -941.90,222.35"/>
    </edge>
    <edge id=":115_0" function="internal">
        <lane id=":115_0_0" index="0" disallow="pedestrian tram rail_urban rail rail_electric rail_fast ship" speed="36.11" length="16.35" width="3.41" shape="-921.45,97.10 -919.64,96.83 -905.24,94.99"/>
    </edge>
    <edge id=":115_1" function="internal">
        <lane id=":115_1_0" index="0" disallow="pedestrian tram rail_urban rail rail_electric rail_fast ship" speed="11.18" length="13.18" width="3.50" shape="-921.24,98.28 -920.63,98.32 -917.01,98.88 -912.94,99.89 -908.97,101.25 -908.50,101.46"/>
    </edge>
    <edge id=":50_0" function="internal">
        <lane id=":50_0_0" index="0" disallow="pedestrian tram rail_urban rail rail_electric rail_fast ship" speed="36.11" length="0.30" width="3.50" shape="-792.51,264.97 -792.32,265.20"/>
    </edge>
    <edge id=":65_0" function="internal">
        <lane id=":65_0_0" index="0" disallow="pedestrian tram rail_urban rail rail_electric rail_fast ship" speed="36.11" length="2.93" width="3.50" shape="-842.28,281.71 -840.98,284.34"/>
    </edge>
    <edge id=":70_0" function="internal">
        <lane id=":70_0_0" index="0" disallow="pedestrian tram rail_urban rail rail_electric rail_fast ship" speed="36.11" length="3.00" width="3.50" shape="-794.23,268.44 -796.09,266.08"/>
    </edge>
    <edge id=":88_0" function="internal">
        <lane id=":88_0_0" index="0" disallow="pedestrian tram rail_urban rail rail_electric rail_fast ship" speed="3.25" length="3.00" width="3.50" shape="-954.73,241.67 -951.85,240.83"/>
    </edge>
    <edge id=":96_0" function="internal">
        <lane id=":96_0_0" index="0" disallow="pedestrian tram rail_urban rail rail_electric rail_fast ship" speed="36.11" length="42.49" width="3.50" shape="-862.66,145.66 -868.59,127.37 -875.78,105.25"/>
    </edge>
    <edge id=":96_1" function="internal">
        <lane id=":96_1_0" index="0" disallow="pedestrian tram rail_urban rail rail_electric rail_fast ship" speed="16.74" length="30.66" width="3.50" shape="-862.67,145.64 -862.70,145.34 -862.64,144.92 -862.49,144.37 -862.25,143.70 -861.92,142.91 -861.51,142.00 -861.00,140.96 -860.40,139.80 -859.71,138.52 -858.94,137.11 -858.07,135.58 -857.11,133.93 -856.06,132.16 -854.93,130.27 -853.70,128.25 -852.38,126.11 -850.98,123.84 -849.48,121.45 -847.89,118.94"/>
    </edge>
    <edge id=":96_2" function="internal">
        <lane id=":96_2_0" index="0" disallow="pedestrian tram rail_urban rail rail_electric rail_fast ship" speed="12.22" length="32.95" width="3.50" shape="-843.69,120.55 -850.40,123.25 -852.29,124.27 -854.08,125.45 -855.74,126.80 -857.23,128.35 -858.48,130.08 -859.00,131.02 -859.45,131.99 -860.11,134.03 -860.45,136.15 -860.51,138.29 -860.31,140.42 -859.90,142.53 -859.33,144.59"/>
    </edge>
    <edge id=":96_3" function="internal">
        <lane id=":96_3_0" index="0" disallow="pedestrian tram rail_urban rail rail_electric rail_fast ship" speed="13.35" length="42.72" width="3.50" shape="-843.69,120.55 -851.11,123.16 -853.68,123.71 -856.32,123.99 -858.98,123.94 -860.36,123.75 -861.70,123.46 -863.02,123.04 -864.30,122.51 -865.52,121.85 -866.68,121.09 -867.75,120.23 -868.77,119.28 -870.49,117.25 -871.93,115.02 -873.12,112.68 -875.78,105.25"/>
    </edge>
    <edge id=":96_4" function="internal">
        <lane id=":96_4_0" index="0" disallow="pedestrian tram rail_urban rail rail_electric rail_fast ship" speed="36.11" length="8.11" width="3.50" shape="-872.45,104.15 -872.26,104.73 -872.10,105.25 -871.96,105.72 -871.83,106.15 -871.71,106.55 -871.61,106.91 -871.51,107.25 -871.41,107.57 -871.32,107.88 -871.22,108.19 -871.12,108.50 -871.00,108.81 -870.88,109.14 -870.73,109.48 -870.57,109.86 -870.39,110.26 -870.17,110.71 -869.93,111.20 -869.66,111.74"/>
    </edge>
    <edge id=":96_5" function="internal">
        <lane id=":96_5_0" index="0" disallow="pedestrian tram rail_urban rail rail_electric rail_fast ship" speed="36.11" length="42.52" width="3.50" shape="-872.45,104.15 -865.26,126.29 -859.33,144.59"/>
    </edge>
    <edge id=":98_0" function="internal">
        <lane id=":98_0_0" index="0" disallow="pedestrian tram rail_urban rail rail_electric rail_fast ship" speed="36.11" length="30.37" width="3.50" shape="-839.69,195.02 -846.81,181.58 -853.91,168.19"/>
    </edge>
    <edge id=":98_1" function="internal">
        <lane id=":98_1_0" index="0" disallow="pedestrian tram rail_urban rail rail_electric rail_fast ship" speed="11.53" length="32.65" width="3.50" shape="-839.69,195.02 -840.29,193.82 -841.30,191.37 -842.02,188.78 -842.25,187.38 -842.35,185.98 -842.31,184.57 -842.13,183.15 -841.79,181.76 -841.31,180.42 -840.68,179.14 -839.94,177.94 -839.10,176.83 -838.16,175.78 -836.17,173.99 -834.00,172.45 -831.72,171.12 -828.25,169.48"/>
    </edge>
    <edge id=":98_2" function="internal">
        <lane id=":98_2_0" index="0" disallow="pedestrian tram rail_urban rail rail_electric rail_fast ship" speed="10.47" length="26.73" width="3.50" shape="-826.88,172.70 -829.89,174.12 -831.82,175.23 -833.65,176.51 -835.32,177.99 -836.07,178.81 -836.76,179.69 -837.36,180.62 -837.87,181.62 -838.27,182.66 -838.55,183.74 -838.71,184.84 -838.76,185.95 -838.69,187.06 -838.53,188.17 -837.95,190.32 -837.10,192.38 -836.60,193.37"/>
    </edge>
    <edge id=":98_3" function="internal">
        <lane id=":98_3_0" index="0" disallow="pedestrian tram rail_urban rail rail_electric rail_fast ship" speed="11.97" length="30.48" width="3.50" shape="-826.88,172.70 -829.12,173.59 -832.56,174.73 -836.11,175.57 -838.59,175.90 -841.12,175.98 -843.65,175.75 -844.96,175.47 -846.22,175.08 -847.45,174.57 -848.63,173.94 -849.75,173.19 -850.77,172.33 -851.71,171.38 -852.56,170.33 -853.91,168.19"/>
    </edge>
    <edge id=":98_4" function="internal">
        <lane id=":98_4_0" index="0" disallow="pedestrian tram rail_urban rail rail_electric rail_fast ship" speed="10.90" length="25.29" width="3.50" shape="-850.83,166.52 -849.70,168.30 -849.03,169.11 -848.27,169.84 -847.44,170.50 -846.55,171.06 -845.60,171.52 -844.61,171.89 -843.59,172.16 -842.55,172.34 -840.45,172.47 -838.34,172.35 -836.25,172.03 -833.18,171.26 -830.18,170.25 -828.25,169.48"/>
    </edge>
    <edge id=":98_5" function="internal">
        <lane id=":98_5_0" index="0" disallow="pedestrian tram rail_urban rail rail_electric rail_fast ship" speed="36.11" length="30.39" width="3.50" shape="-850.83,166.52 -843.72,179.95 -836.60,193.37"/>
    </edge>
    <edge id=":99_0" function="internal">
        <lane id=":99_0_0" index="0" disallow="pedestrian tram rail_urban rail rail_electric rail_fast ship" speed="7.19" length="8.40" width="3.50" shape="-862.50,163.60 -862.95,164.59 -863.29,166.16 -863.33,167.77 -863.09,169.91 -862.63,171.80"/>
    </edge>
    <edge id=":99_1" function="internal">
        <lane id=":99_1_0" index="0" disallow="pedestrian tram rail_urban rail rail_electric rail_fast ship" speed="21.71" length="9.28" width="3.50" shape="-862.60,163.50 -867.41,168.34 -869.25,169.96"/>
    </edge>
    <edge id=":99_2" function="internal">
        <lane id=":99_2_0" index="0" disallow="pedestrian tram rail_urban rail rail_electric rail_fast ship" speed="36.11" length="10.54" width="3.50" shape="-867.70,162.59 -863.38,172.20"/>
    </edge>
    <edge id=":99_3" function="internal">
        <lane id=":99_3_0" index="0" disallow="pedestrian tram rail_urban rail rail_electric rail_fast ship" speed="6.27" length="8.02" width="3.50" shape="-867.81,162.64 -867.70,162.94 -867.34,164.73 -867.30,165.94 -867.47,167.14 -867.87,168.29 -868.49,169.33 -869.19,170.08"/>
    </edge>

    <edge id="58985" from="101" to="103" priority="3" type="highway.residential" spreadType="center" length="3.64">
        <lane id="58985_0" index="0" disallow="pedestrian tram rail_urban rail rail_electric rail_fast ship" speed="36.11" length="3.64" width="3.49" customShape="1" shape="-838.30,207.52 -837.94,207.32 -840.75,208.91"/>
    </edge>
    <edge id="58987" from="103" to="107" priority="3" type="highway.residential" spreadType="center" length="89.90">
        <lane id="58987_0" index="0" disallow="pedestrian tram rail_urban rail rail_electric rail_fast ship" speed="36.11" length="89.90" width="3.50" customShape="1" shape="-846.55,212.01 -886.74,232.31 -926.79,252.55"/>
    </edge>
    <edge id="59061" from="107" to="114" priority="3" type="highway.residential" spreadType="center" length="9.10">
        <lane id="59061_0" index="0" disallow="pedestrian tram rail_urban rail rail_electric rail_fast ship" speed="36.11" length="9.10" width="3.50" customShape="1" shape="-933.95,249.44 -935.02,245.75 -936.49,240.70"/>
    </edge>
    <edge id="59063" from="114" to="105" priority="3" type="highway.residential" spreadType="center" length="15.00">
        <lane id="59063_0" index="0" disallow="pedestrian tram rail_urban rail rail_electric rail_fast ship" speed="36.11" length="15.00" width="3.50" customShape="1" shape="-941.85,222.34 -942.32,220.70 -946.04,207.94"/>
    </edge>
    <edge id="59077" from="110" to="65" priority="3" type="highway.residential" spreadType="center" length="31.41">
        <lane id="59077_0" index="0" disallow="pedestrian tram rail_urban rail rail_electric rail_fast ship" speed="36.11" length="31.41" width="3.50" customShape="1" shape="-856.76,253.84 -846.52,273.54 -842.28,281.71"/>
    </edge>
    <edge id="59141" from="68" to="102" priority="3" type="highway.residential" spreadType="center" length="69.99" shape="-815.04,58.49 -776.33,132.72">
        <lane id="59141_0" index="0" disallow="pedestrian tram rail_urban rail rail_electric rail_fast ship" speed="36.11" length="69.99" width="3.50" customShape="1" shape="-815.04,58.49 -814.88,59.06 -813.60,62.34 -812.06,65.50 -810.08,69.00 -807.11,73.67 -801.73,81.57 -797.35,88.32 -794.62,93.13 -792.67,97.22 -783.07,120.46"/>
    </edge>
    <edge id="59142" from="102" to="56" priority="3" type="highway.residential" spreadType="center" length="69.99" shape="-779.43,134.34 -818.24,59.78">
        <lane id="59142_0" index="0" disallow="pedestrian tram rail_urban rail rail_electric rail_fast ship" speed="36.11" length="69.99" width="3.50" customShape="1" shape="-786.31,121.77 -796.13,98.04 -798.14,93.97 -800.95,89.16 -805.46,82.32 -810.96,74.17 -813.97,69.26 -815.95,65.51 -817.46,62.08 -818.24,59.78"/>
    </edge>
    <edge id="59144" from="108" to="110" priority="3" type="highway.residential" spreadType="center" length="31.47">
        <lane id="59144_0" index="0" disallow="pedestrian tram rail_urban rail rail_electric rail_fast ship" speed="36.11" length="31.47" width="3.50" customShape="1" shape="-826.58,232.20 -839.58,238.95 -854.50,246.71"/>
    </edge>
    <edge id="59146" from="110" to="66" priority="3" type="highway.residential" spreadType="center" length="81.28">
        <lane id="59146_0" index="0" disallow="pedestrian tram rail_urban rail rail_electric rail_fast ship" speed="36.11" length="81.28" width="3.50" customShape="1" shape="-863.92,251.42 -913.59,275.29 -936.90,286.09 -937.34,286.29"/>
    </edge>
    <edge id="59242" from="111" to="84" priority="3" type="highway.residential" spreadType="center" length="37.53" shape="-744.45,83.92 -770.80,36.45">
        <lane id="59242_0" index="0" disallow="pedestrian tram rail_urban rail rail_electric rail_fast ship" speed="36.11" length="37.53" width="3.50" customShape="1" shape="-755.45,70.70 -763.13,53.57 -770.80,36.45"/>
    </edge>
    <edge id="59243" from="92" to="111" priority="3" type="highway.residential" spreadType="center" length="37.53" shape="-767.60,35.02 -741.39,82.22">
        <lane id="59243_0" index="0" disallow="pedestrian tram rail_urban rail rail_electric rail_fast ship" speed="36.11" length="37.53" width="3.50" customShape="1" shape="-767.60,35.02 -759.93,52.14 -752.26,69.27"/>
    </edge>