<!-- generated on Tue Feb  9 22:12:25 2021 by Eclipse SUMO netconvert Version 1.8.0
<configuration xmlns:xsi="http://www.w3.org/2001/XMLSchema-instance" xsi:noNamespaceSchemaLocation="http://sumo.dlr.de/xsd/netconvertConfiguration.xsd">

    <input>
        <node-files value="./converted_scenarios/scenario-factory/DEU_Guetersloh-40_3_I-1-1/DEU_Guetersloh-40_3_I-1-1.nod.xml"/>
        <edge-files value="./converted_scenarios/scenario-factory/DEU_Guetersloh-40_3_I-1-1/DEU_Guetersloh-40_3_I-1-1.edg.xml"/>
        <connection-files value="./converted_scenarios/scenario-factory/DEU_Guetersloh-40_3_I-1-1/DEU_Guetersloh-40_3_I-1-1.con.xml"/>
        <tllogic-files value="./converted_scenarios/scenario-factory/DEU_Guetersloh-40_3_I-1-1/DEU_Guetersloh-40_3_I-1-1.tll.xml"/>
        <type-files value="/home/zen/commonroad-interactive-benchmarks/install/commonroad-map-tool/crmapconverter/sumo_map/templates/DEU.typ.xml"/>
    </input>

    <output>
        <output-file value="./converted_scenarios/scenario-factory/DEU_Guetersloh-40_3_I-1-1/DEU_Guetersloh-40_3_I-1-1.net.xml"/>
    </output>

    <processing>
        <geometry.remove.keep-edges.explicit value="true"/>
        <geometry.avoid-overlap value="true"/>
        <offset.disable-normalization value="true"/>
    </processing>

    <junctions>
        <no-turnarounds value="true"/>
        <junctions.internal-link-detail value="20"/>
    </junctions>

    <report>
        <aggregate-warnings value="5"/>
    </report>

    <random_number>
        <seed value="1234"/>
    </random_number>

</configuration>
--><net xmlns:xsi="http://www.w3.org/2001/XMLSchema-instance" version="1.6" junctionCornerDetail="5" junctionLinkDetail="20" limitTurnSpeed="5.50" xsi:noNamespaceSchemaLocation="http://sumo.dlr.de/xsd/net_file.xsd">

    <location netOffset="0.00,0.00" convBoundary="-747.08,373.62,-492.68,636.99" origBoundary="-747.08,373.62,-492.68,636.99" projParameter="!"/>

    <type id="highway.bridleway" priority="1" speed="2.78" allow="pedestrian" oneway="1" width="2.00"/>
    <type id="highway.bus_guideway" priority="1" speed="27.78" allow="bus" oneway="1"/>
    <type id="highway.cycleway" priority="1" speed="8.33" allow="bicycle" oneway="0" width="1.00"/>
    <type id="highway.footway" priority="1" speed="2.78" allow="pedestrian" oneway="1" width="2.00"/>
    <type id="highway.ford" priority="1" speed="2.78" allow="army" oneway="0"/>
    <type id="highway.living_street" priority="2" speed="2.78" disallow="tram rail_urban rail rail_electric rail_fast ship" oneway="0"/>
    <type id="highway.motorway" priority="14" speed="39.44" allow="private emergency authority army vip passenger hov taxi bus coach delivery truck trailer motorcycle evehicle custom1 custom2" oneway="1"/>
    <type id="highway.motorway_link" priority="9" speed="22.22" allow="private emergency authority army vip passenger hov taxi bus coach delivery truck trailer motorcycle evehicle custom1 custom2" oneway="1"/>
    <type id="highway.path" priority="1" speed="2.78" allow="pedestrian bicycle" oneway="0" width="2.00"/>
    <type id="highway.pedestrian" priority="1" speed="2.78" allow="pedestrian" oneway="1" width="2.00"/>
    <type id="highway.primary" priority="12" speed="27.78" disallow="pedestrian tram rail_urban rail rail_electric rail_fast ship" oneway="0"/>
    <type id="highway.primary_link" priority="7" speed="22.22" disallow="pedestrian tram rail_urban rail rail_electric rail_fast ship" oneway="0"/>
    <type id="highway.raceway" priority="15" speed="83.33" allow="vip" oneway="0"/>
    <type id="highway.residential" priority="3" speed="13.89" disallow="pedestrian tram rail_urban rail rail_electric rail_fast ship" oneway="0"/>
    <type id="highway.secondary" priority="11" speed="27.78" disallow="pedestrian tram rail_urban rail rail_electric rail_fast ship" oneway="0"/>
    <type id="highway.secondary_link" priority="6" speed="22.22" disallow="pedestrian tram rail_urban rail rail_electric rail_fast ship" oneway="0"/>
    <type id="highway.service" priority="1" speed="5.56" allow="pedestrian delivery bicycle" oneway="0"/>
    <type id="highway.stairs" priority="1" speed="1.39" allow="pedestrian" oneway="1" width="2.00"/>
    <type id="highway.step" priority="1" speed="1.39" allow="pedestrian" oneway="1" width="2.00"/>
    <type id="highway.steps" priority="1" speed="1.39" allow="pedestrian" oneway="1" width="2.00"/>
    <type id="highway.tertiary" priority="10" speed="22.22" disallow="pedestrian tram rail_urban rail rail_electric rail_fast ship" oneway="0"/>
    <type id="highway.tertiary_link" priority="5" speed="22.22" disallow="pedestrian tram rail_urban rail rail_electric rail_fast ship" oneway="0"/>
    <type id="highway.track" priority="1" speed="5.56" allow="pedestrian motorcycle moped bicycle" oneway="0"/>
    <type id="highway.trunk" priority="13" speed="27.78" disallow="pedestrian bicycle tram rail_urban rail rail_electric rail_fast ship" oneway="0"/>
    <type id="highway.trunk_link" priority="8" speed="22.22" disallow="pedestrian bicycle tram rail_urban rail rail_electric rail_fast ship" oneway="0"/>
    <type id="highway.unclassified" priority="4" speed="13.89" disallow="pedestrian tram rail_urban rail rail_electric rail_fast ship" oneway="0"/>
    <type id="highway.unsurfaced" priority="1" speed="8.33" disallow="tram rail_urban rail rail_electric rail_fast ship" oneway="0"/>
    <type id="railway.highspeed" priority="21" speed="69.44" allow="rail_fast" oneway="1"/>
    <type id="railway.light_rail" priority="19" speed="27.78" allow="rail_urban" oneway="1"/>
    <type id="railway.preserved" priority="16" speed="27.78" allow="rail" oneway="1"/>
    <type id="railway.rail" priority="20" speed="44.44" allow="rail" oneway="1"/>
    <type id="railway.subway" priority="18" speed="27.78" allow="rail_urban" oneway="1"/>
    <type id="railway.tram" priority="17" speed="13.89" allow="tram" oneway="1"/>

    <edge id=":37_0" function="internal">
        <lane id=":37_0_0" index="0" disallow="pedestrian tram rail_urban rail rail_electric rail_fast ship" speed="36.11" length="38.38" width="3.49" shape="-635.66,567.82 -637.69,553.43 -640.57,529.76"/>
    </edge>
    <edge id=":37_1" function="internal">
        <lane id=":37_1_0" index="0" disallow="pedestrian tram rail_urban rail rail_electric rail_fast ship" speed="13.34" length="28.56" width="3.50" shape="-629.63,539.30 -629.88,539.76 -631.13,542.74 -632.04,545.85 -632.73,549.56 -633.07,553.32 -633.12,557.63 -632.82,562.47 -632.20,567.29"/>
    </edge>
    <edge id=":37_2" function="internal">
        <lane id=":37_2_0" index="0" disallow="pedestrian tram rail_urban rail rail_electric rail_fast ship" speed="36.11" length="38.26" width="3.50" shape="-637.09,529.35 -634.22,552.96 -632.20,567.29"/>
    </edge>
    <edge id=":38_0" function="internal">
        <lane id=":38_0_0" index="0" disallow="pedestrian tram rail_urban rail rail_electric rail_fast ship" speed="36.11" length="50.11" width="3.50" shape="-644.58,492.87 -648.25,459.33 -650.29,443.09"/>
    </edge>
    <edge id=":38_1" function="internal">
        <lane id=":38_1_0" index="0" disallow="pedestrian tram rail_urban rail rail_electric rail_fast ship" speed="36.11" length="50.22" width="3.50" shape="-646.83,442.61 -644.78,458.90 -641.10,492.50"/>
    </edge>
    <edge id=":38_2" function="internal">
        <lane id=":38_2_0" index="0" disallow="pedestrian tram rail_urban rail rail_electric rail_fast ship" speed="18.11" length="39.84" width="3.50" shape="-652.02,482.52 -651.73,481.79 -650.58,477.79 -649.69,473.19 -649.11,468.02 -648.89,462.29 -649.03,456.05 -649.60,448.78 -650.29,443.09"/>
    </edge>
    <edge id=":39_0" function="internal">
        <lane id=":39_0_0" index="0" disallow="pedestrian tram rail_urban rail rail_electric rail_fast ship" speed="23.82" length="46.62" width="3.50" shape="-562.09,526.57 -571.79,525.08 -579.99,524.17 -587.71,523.68 -594.42,523.62 -600.08,523.91 -605.21,524.51 -608.43,525.14"/>
    </edge>
    <edge id=":39_1" function="internal">
        <lane id=":39_1_0" index="0" disallow="pedestrian tram rail_urban rail rail_electric rail_fast ship" speed="36.11" length="55.31" width="3.50" shape="-562.09,526.57 -591.41,521.77 -616.70,517.79"/>
    </edge>
    <edge id=":39_2" function="internal">
        <lane id=":39_2_0" index="0" disallow="pedestrian tram rail_urban rail rail_electric rail_fast ship" speed="36.11" length="55.34" width="3.50" shape="-616.16,514.33 -590.85,518.31 -561.52,523.12"/>
    </edge>
    <edge id=":40_0" function="internal">
        <lane id=":40_0_0" index="0" disallow="pedestrian tram rail_urban rail rail_electric rail_fast ship" speed="36.11" length="37.82" width="3.50" shape="-665.86,511.39 -684.67,509.45 -703.48,507.51"/>
    </edge>
    <edge id=":40_1" function="internal">
        <lane id=":40_1_0" index="0" disallow="pedestrian tram rail_urban rail rail_electric rail_fast ship" speed="18.89" length="30.72" width="3.49" shape="-703.14,504.03 -697.47,504.42 -691.78,504.45 -686.62,504.10 -682.02,503.46 -677.47,502.48 -673.01,501.15 -672.80,501.07"/>
    </edge>
    <edge id=":40_2" function="internal">
        <lane id=":40_2_0" index="0" disallow="pedestrian tram rail_urban rail rail_electric rail_fast ship" speed="36.11" length="37.84" width="3.50" shape="-703.14,504.03 -684.31,505.97 -665.50,507.91"/>
    </edge>
    <edge id=":41_0" function="internal">
        <lane id=":41_0_0" index="0" disallow="pedestrian tram rail_urban rail rail_electric rail_fast ship" speed="8.49" length="13.32" width="3.50" shape="-641.54,521.24 -642.14,517.01 -642.60,516.12 -643.25,515.35 -644.05,514.74 -644.93,514.26 -645.87,513.88 -646.83,513.59 -647.81,513.37 -649.80,513.07"/>
    </edge>
    <edge id=":41_1" function="internal">
        <lane id=":41_1_0" index="0" disallow="pedestrian tram rail_urban rail rail_electric rail_fast ship" speed="36.11" length="20.03" width="3.50" shape="-641.54,521.24 -642.80,509.66 -643.70,501.33"/>
    </edge>
    <edge id=":41_2" function="internal">
        <lane id=":41_2_0" index="0" disallow="pedestrian tram rail_urban rail rail_electric rail_fast ship" speed="8.09" length="17.37" width="3.50" shape="-641.54,521.24 -641.95,516.22 -641.54,514.51 -640.54,513.07 -639.05,512.14 -637.34,511.69 -635.58,511.56 -633.81,511.63 -632.06,511.85"/>
    </edge>
    <edge id=":41_3" function="internal">
        <lane id=":41_3_0" index="0" disallow="pedestrian tram rail_urban rail rail_electric rail_fast ship" speed="6.44" length="10.54" width="3.50" shape="-632.60,515.31 -633.84,515.15 -635.05,515.08 -636.20,515.14 -637.21,515.35 -637.92,515.72 -638.26,516.13 -638.44,516.70 -638.08,520.65"/>
    </edge>
    <edge id=":41_4" function="internal">
        <lane id=":41_4_0" index="0" disallow="pedestrian tram rail_urban rail rail_electric rail_fast ship" speed="36.11" length="17.35" width="3.50" shape="-632.60,515.31 -643.34,513.81 -649.80,513.07"/>
    </edge>
    <edge id=":41_5" function="internal">
        <lane id=":41_5_0" index="0" disallow="pedestrian tram rail_urban rail rail_electric rail_fast ship" speed="10.36" length="19.39" width="3.50" shape="-632.60,515.31 -633.96,515.02 -635.31,514.60 -636.61,514.01 -637.85,513.26 -638.98,512.36 -639.98,511.33 -640.84,510.20 -641.57,508.99 -642.16,507.75 -642.64,506.45 -643.31,503.91 -643.70,501.33"/>
    </edge>
    <edge id=":41_6" function="internal">
        <lane id=":41_6_0" index="0" disallow="pedestrian tram rail_urban rail rail_electric rail_fast ship" speed="9.07" length="14.78" width="3.50" shape="-640.22,500.96 -639.91,503.05 -639.39,505.10 -639.03,506.10 -638.60,507.06 -638.08,507.98 -637.46,508.83 -636.75,509.61 -635.94,510.29 -635.05,510.86 -634.09,511.30 -633.09,511.63 -632.06,511.85"/>
    </edge>
    <edge id=":41_7" function="internal">
        <lane id=":41_7_0" index="0" disallow="pedestrian tram rail_urban rail rail_electric rail_fast ship" speed="36.11" length="19.81" width="3.50" shape="-640.22,500.96 -639.32,509.28 -638.08,520.65"/>
    </edge>
    <edge id=":41_8" function="internal">
        <lane id=":41_8_0" index="0" disallow="pedestrian tram rail_urban rail rail_electric rail_fast ship" speed="8.51" length="18.64" width="3.50" shape="-640.22,500.96 -640.09,502.66 -640.08,504.35 -640.21,506.04 -640.53,507.71 -641.11,509.30 -642.02,510.73 -643.27,511.86 -644.78,512.63 -646.42,513.04 -648.11,513.16 -649.80,513.07"/>
    </edge>
    <edge id=":41_9" function="internal">
        <lane id=":41_9_0" index="0" disallow="pedestrian tram rail_urban rail rail_electric rail_fast ship" speed="6.99" length="12.27" width="3.50" shape="-649.44,509.59 -648.28,509.65 -647.17,509.57 -646.19,509.32 -645.34,508.87 -644.67,508.20 -644.18,507.32 -643.85,506.28 -643.66,505.12 -643.58,503.89 -643.60,502.62 -643.70,501.33"/>
    </edge>
    <edge id=":41_10" function="internal">
        <lane id=":41_10_0" index="0" disallow="pedestrian tram rail_urban rail rail_electric rail_fast ship" speed="36.11" length="17.53" width="3.50" shape="-649.44,509.59 -642.90,510.34 -632.06,511.85"/>
    </edge>
    <edge id=":41_11" function="internal">
        <lane id=":41_11_0" index="0" disallow="pedestrian tram rail_urban rail rail_electric rail_fast ship" speed="9.78" length="17.86" width="3.50" shape="-649.44,509.59 -646.81,510.01 -645.46,510.35 -644.13,510.80 -642.81,511.41 -641.55,512.22 -640.41,513.26 -639.46,514.54 -638.80,516.00 -638.08,520.65"/>
    </edge>

    <edge id="68911" from="40" to="41" priority="3" type="highway.residential" spreadType="center" length="16.15" shape="-679.53,503.49 -640.69,509.25">
        <lane id="68911_0" index="0" disallow="pedestrian tram rail_urban rail rail_electric rail_fast ship" speed="36.11" length="16.15" width="3.50" customShape="1" shape="-665.50,507.91 -665.37,507.92 -665.24,507.94 -657.47,508.75 -649.69,509.57 -649.57,509.58 -649.44,509.59"/>
    </edge>
    <edge id="68915" from="41" to="40" priority="3" type="highway.residential" spreadType="center" length="16.15" shape="-641.20,512.70 -680.05,506.95">
        <lane id="68915_0" index="0" disallow="pedestrian tram rail_urban rail rail_electric rail_fast ship" speed="36.11" length="16.15" width="3.50" customShape="1" shape="-649.80,513.07 -649.93,513.06 -650.06,513.05 -657.83,512.23 -665.61,511.42 -665.73,511.40 -665.86,511.39"/>
    </edge>
    <edge id="68986" from="38" to="17" priority="3" type="highway.residential" spreadType="center" length="70.00" shape="-649.93,473.06 -662.01,374.09">
        <lane id="68986_0" index="0" disallow="pedestrian tram rail_urban rail rail_electric rail_fast ship" speed="36.11" length="70.00" width="3.50" customShape="1" shape="-650.29,443.09 -650.50,441.60 -653.09,424.17 -657.42,398.87 -662.01,374.09"/>
    </edge>
    <edge id="68987" from="23" to="38" priority="3" type="highway.residential" spreadType="center" length="69.99" shape="-658.53,373.62 -646.46,472.63">
        <lane id="68987_0" index="0" disallow="pedestrian tram rail_urban rail rail_electric rail_fast ship" speed="36.11" length="69.99" width="3.50" customShape="1" shape="-658.53,373.62 -653.97,398.29 -649.63,423.64 -647.04,441.10 -646.82,442.62"/>
    </edge>
    <edge id="69032" from="37" to="41" priority="3" type="highway.residential" spreadType="center" length="8.58" shape="-634.99,545.21 -642.74,511.27">
        <lane id="69032_0" index="0" disallow="pedestrian tram rail_urban rail rail_electric rail_fast ship" speed="36.11" length="8.58" width="3.49" customShape="1" shape="-640.57,529.76 -640.58,529.63 -640.59,529.50 -641.24,523.87 -641.54,521.24"/>
    </edge>
    <edge id="69036" from="41" to="37" priority="3" type="highway.residential" spreadType="center" length="8.77" shape="-639.34,510.49 -631.59,544.43">
        <lane id="69036_0" index="0" disallow="pedestrian tram rail_urban rail rail_electric rail_fast ship" speed="36.11" length="8.77" width="3.50" customShape="1" shape="-638.08,520.65 -637.76,523.47 -637.12,529.10 -637.10,529.23 -637.09,529.36"/>
    </edge>
    <edge id="69051" from="40" to="38" priority="3" type="highway.residential" spreadType="center" length="28.27">
        <lane id="69051_0" index="0" disallow="pedestrian tram rail_urban rail rail_electric rail_fast ship" speed="36.11" length="28.27" width="3.49" customShape="1" shape="-671.36,503.00 -659.06,493.81 -649.78,484.82"/>
    </edge>
    <edge id="69186" from="39" to="37" priority="3" type="highway.residential" spreadType="center" length="25.48">
        <lane id="69186_0" index="0" disallow="pedestrian tram rail_urban rail rail_electric rail_fast ship" speed="36.11" length="25.48" width="3.50" customShape="1" shape="-609.77,522.97 -620.85,529.83 -631.43,536.38"/>
    </edge>
    <edge id="69274" from="22" to="40" priority="3" type="highway.residential" spreadType="center" length="43.85" shape="-746.76,499.65 -679.65,503.47">
        <lane id="69274_0" index="0" disallow="pedestrian tram rail_urban rail rail_electric rail_fast ship" speed="36.11" length="43.85" width="3.50" customShape="1" shape="-746.76,499.65 -724.95,501.84 -703.13,504.03"/>
    </edge>
    <edge id="69275" from="40" to="14" priority="3" type="highway.residential" spreadType="center" length="43.82" shape="-679.85,506.97 -747.08,503.13">
        <lane id="69275_0" index="0" disallow="pedestrian tram rail_urban rail rail_electric rail_fast ship" speed="36.11" length="43.82" width="3.50" customShape="1" shape="-703.48,507.51 -725.30,505.32 -747.08,503.13"/>
    </edge>
    <edge id="69375" from="39" to="41" priority="3" type="highway.residential" spreadType="center" length="16.09" shape="-595.87,524.01 -641.51,512.64">
        <lane id="69375_0" index="0" disallow="pedestrian tram rail_urban rail rail_electric rail_fast ship" speed="36.11" length="16.09" width="3.50" customShape="1" shape="-616.70,517.79 -616.82,517.77 -616.94,517.75 -624.64,516.55 -632.35,515.35 -632.47,515.33 -632.60,515.30"/>
    </edge>
    <edge id="69379" from="41" to="39" priority="3" type="highway.residential" spreadType="center" length="16.09" shape="-640.66,509.25 -595.02,520.61">
        <lane id="69379_0" index="0" disallow="pedestrian tram rail_urban rail rail_electric rail_fast ship" speed="36.11" length="16.09" width="3.50" customShape="1" shape="-632.06,511.85 -631.93,511.87 -631.81,511.89 -624.10,513.09 -616.40,514.29 -616.28,514.31 -616.16,514.33"/>
    </edge>
    <edge id="69387" from="41" to="38" priority="3" type="highway.residential" spreadType="center" length="8.51" shape="-642.72,511.36 -649.92,473.14">
        <lane id="69387_0" index="0" disallow="pedestrian tram rail_urban rail rail_electric rail_fast ship" speed="36.11" length="8.51" width="3.50" customShape="1" shape="-643.70,501.33 -643.71,501.20 -643.72,501.07 -643.93,499.14 -644.13,497.21 -644.14,497.08 -644.16,496.95 -644.36,495.04 -644.56,493.12 -644.57,493.00 -644.58,492.87"/>
    </edge>
    <edge id="69394" from="38" to="41" priority="3" type="highway.residential" spreadType="center" length="8.51" shape="-646.48,472.49 -639.29,510.72">
        <lane id="69394_0" index="0" disallow="pedestrian tram rail_urban rail rail_electric rail_fast ship" speed="36.11" length="8.51" width="3.50" customShape="1" shape="-641.10,492.50 -641.09,492.63 -641.08,492.76 -640.87,494.67 -640.67,496.58 -640.66,496.72 -640.65,496.85 -640.45,498.78 -640.24,500.71 -640.23,500.84 -640.22,500.96"/>
    </edge>
    <edge id="69427" from="21" to="39" priority="3" type="highway.residential" spreadType="center" length="69.99" shape="-493.26,539.17 -595.73,524.04">
        <lane id="69427_0" index="0" disallow="pedestrian tram rail_urban rail rail_electric rail_fast ship" speed="36.11" length="69.99" width="3.50" customShape="1" shape="-493.26,539.17 -506.36,536.44 -531.46,531.62 -562.10,526.57"/>
    </edge>
    <edge id="69428" from="39" to="11" priority="3" type="highway.residential" spreadType="center" length="69.99" shape="-595.22,520.58 -492.68,535.72">
        <lane id="69428_0" index="0" disallow="pedestrian tram rail_urban rail rail_electric rail_fast ship" speed="36.11" length="69.99" width="3.50" customShape="1" shape="-561.52,523.12 -530.79,528.19 -505.62,533.02 -492.68,535.72"/>
    </edge>
    <edge id="69767" from="5" to="37" priority="3" type="highway.residential" spreadType="center" length="70.00" shape="-625.00,636.99 -635.04,544.98">
        <lane id="69767_0" index="0" disallow="pedestrian tram rail_urban rail rail_electric rail_fast ship" speed="36.11" length="70.00" width="3.50" customShape="1" shape="-625.00,636.99 -635.66,567.81"/>
    </edge>
    <edge id="69768" from="37" to="3" priority="3" type="highway.residential" spreadType="center" length="70.00" shape="-631.56,544.60 -621.54,636.47">
        <lane id="69768_0" index="0" disallow="pedestrian tram rail_urban rail rail_electric rail_fast ship" speed="36.11" length="70.00" width="3.50" customShape="1" shape="-632.20,567.29 -621.54,636.47"/>
    </edge>

    <junction id="11" type="dead_end" x="-492.68" y="535.72" incLanes="69428_0" intLanes="" shape="-492.32,534.00 -493.03,537.43" rightOfWay="edgePriority"/>
    <junction id="14" type="dead_end" x="-747.08" y="503.13" incLanes="69275_0" intLanes="" shape="-747.26,504.87 -746.91,501.39" rightOfWay="edgePriority"/>
    <junction id="17" type="dead_end" x="-662.01" y="374.09" incLanes="68986_0" intLanes="" shape="-663.73,374.41 -660.29,373.77" rightOfWay="edgePriority"/>
    <junction id="21" type="dead_end" x="-493.26" y="539.17" incLanes="" intLanes="" shape="-492.90,537.46 -493.61,540.88" rightOfWay="edgePriority"/>
    <junction id="22" type="dead_end" x="-746.76" y="499.65" incLanes="" intLanes="" shape="-746.93,501.39 -746.58,497.90" rightOfWay="edgePriority"/>
    <junction id="23" type="dead_end" x="-658.53" y="373.62" incLanes="" intLanes="" shape="-660.26,373.94 -656.81,373.30" rightOfWay="edgePriority"/>
    <junction id="3" type="dead_end" x="-621.54" y="636.47" incLanes="69768_0" intLanes="" shape="-619.81,636.21 -623.26,636.74" rightOfWay="edgePriority"/>
    <junction id="37" type="priority" x="-633.29" y="544.82" incLanes="69767_0 69186_0 69036_0" intLanes=":37_0_0 :37_1_0 :37_2_0" shape="-637.39,568.09 -630.47,567.02 -631.61,558.81 -632.30,551.94 -632.53,546.41 -632.31,542.22 -631.64,539.37 -630.51,537.87 -632.35,534.89 -633.66,534.86 -634.20,534.14 -634.66,532.95 -635.04,531.29 -635.35,529.16 -642.30,529.95">
        <request index="0" response="000" foes="000" cont="0"/>
        <request index="1" response="100" foes="100" cont="0"/>
        <request index="2" response="000" foes="010" cont="0"/>
    </junction>
    <junction id="38" type="priority" x="-648.20" y="472.81" incLanes="69387_0 68987_0 69051_0" intLanes=":38_0_0 :38_1_0 :38_2_0" shape="-646.32,493.05 -639.36,492.32 -645.09,442.37 -652.03,443.33 -650.59,454.54 -649.66,463.94 -649.23,471.55 -649.32,477.36 -649.91,481.36 -651.00,483.57 -648.57,486.08 -647.71,486.26 -647.32,487.15 -646.96,488.58 -646.63,490.55">
        <request index="0" response="000" foes="100" cont="0"/>
        <request index="1" response="000" foes="000" cont="0"/>
        <request index="2" response="001" foes="001" cont="0"/>
    </junction>
    <junction id="39" type="priority" x="-595.44" y="522.31" incLanes="69427_0 69379_0" intLanes=":39_0_0 :39_1_0 :39_2_0" shape="-562.38,528.30 -561.24,521.39 -615.89,512.60 -616.97,519.51 -614.69,519.90 -612.91,520.26 -611.62,520.60 -610.82,520.91 -610.51,521.21 -610.69,521.48 -608.85,524.46 -600.12,520.22 -593.10,519.15 -586.81,520.35 -580.25,522.89 -572.43,525.84">
        <request index="0" response="000" foes="000" cont="0"/>
        <request index="1" response="000" foes="000" cont="0"/>
        <request index="2" response="000" foes="000" cont="0"/>
    </junction>
    <junction id="40" type="priority" x="-679.79" y="505.22" incLanes="68915_0 69274_0" intLanes=":40_0_0 :40_1_0 :40_2_0" shape="-666.04,513.13 -665.31,506.17 -668.74,505.67 -669.79,505.39 -670.40,505.08 -670.58,504.76 -670.31,504.40 -672.40,501.60 -677.86,504.94 -682.39,506.19 -686.57,505.95 -691.00,504.82 -696.27,503.40 -702.96,502.29 -703.66,509.25">
        <request index="0" response="000" foes="000" cont="0"/>
        <request index="1" response="000" foes="000" cont="0"/>
        <request index="2" response="000" foes="000" cont="0"/>
    </junction>
    <junction id="41" type="priority" x="-641.02" y="510.96" incLanes="69032_0 69375_0 69394_0 68911_0" intLanes=":41_0_0 :41_1_0 :41_2_0 :41_3_0 :41_4_0 :41_5_0 :41_6_0 :41_7_0 :41_8_0 :41_9_0 :41_10_0 :41_11_0" shape="-643.26,521.54 -636.36,520.35 -636.17,518.23 -635.71,517.55 -635.01,517.12 -634.06,516.95 -632.87,517.03 -631.79,510.12 -635.12,508.68 -636.37,507.33 -637.34,505.56 -638.05,503.37 -638.48,500.77 -645.44,501.52 -645.34,503.60 -645.53,505.27 -646.02,506.54 -646.80,507.38 -647.88,507.82 -649.26,507.85 -649.99,514.81 -646.56,515.84 -645.29,516.81 -644.32,518.08 -643.64,519.66">
        <request index="0" response="000000000000" foes="000100010000" cont="0"/>
        <request index="1" response="000000000000" foes="111100110000" cont="0"/>
        <request index="2" response="000011000000" foes="110011110000" cont="0"/>
        <request index="3" response="000010000000" foes="100010000000" cont="0"/>
        <request index="4" response="000110000111" foes="100110000111" cont="0"/>
        <request index="5" response="011110000110" foes="111110000110" cont="0"/>
        <request index="6" response="000000000000" foes="010000000100" cont="0"/>
        <request index="7" response="000000000000" foes="110000111100" cont="0"/>
        <request index="8" response="000000000011" foes="110000110011" cont="0"/>
        <request index="9" response="000000000010" foes="000000100010" cont="0"/>
        <request index="10" response="000111000110" foes="000111100110" cont="0"/>
        <request index="11" response="000110111110" foes="000110111110" cont="0"/>
    </junction>
    <junction id="5" type="dead_end" x="-625.00" y="636.99" incLanes="" intLanes="" shape="-623.27,636.73 -626.72,637.26" rightOfWay="edgePriority"/>

    <connection from="68911" to="69387" fromLane="0" toLane="0" contPos="-4.00" shape="-649.44,509.59 -648.28,509.65 -647.17,509.57 -646.19,509.32 -645.34,508.87 -644.67,508.20 -644.18,507.32 -643.85,506.28 -643.66,505.12 -643.58,503.89 -643.60,502.62 -643.70,501.33" via=":41_9_0" dir="r" state="m"/>
    <connection from="68911" to="69379" fromLane="0" toLane="0" contPos="-4.00" shape="-649.44,509.59 -642.90,510.34 -632.06,511.85" via=":41_10_0" dir="s" state="m"/>
    <connection from="68911" to="69036" fromLane="0" toLane="0" contPos="-4.00" shape="-649.44,509.59 -646.81,510.01 -645.46,510.35 -644.13,510.80 -642.81,511.41 -641.55,512.22 -640.41,513.26 -639.46,514.54 -638.80,516.00 -638.44,517.61" via=":41_11_0" dir="l" state="m"/>
    <connection from="68915" to="69275" fromLane="0" toLane="0" contPos="-4.00" shape="-665.86,511.39 -684.67,509.45 -703.48,507.51" via=":40_0_0" dir="s" state="M"/>
    <connection from="68987" to="69394" fromLane="0" toLane="0" contPos="-4.00" shape="-646.82,442.62 -644.78,458.90 -641.10,492.50" via=":38_1_0" dir="s" state="M"/>
    <connection from="69032" to="68915" fromLane="0" toLane="0" contPos="-4.00" shape="-641.91,517.99 -642.14,517.01 -642.60,516.12 -643.25,515.35 -644.05,514.74 -644.93,514.26 -645.87,513.88 -646.83,513.59 -647.81,513.37 -649.80,513.07" via=":41_0_0" dir="r" state="M"/>
    <connection from="69032" to="69387" fromLane="0" toLane="0" contPos="-4.00" shape="-641.91,517.99 -642.80,509.66 -643.70,501.33" via=":41_1_0" dir="s" state="M"/>
    <connection from="69032" to="69379" fromLane="0" toLane="0" contPos="-4.00" shape="-641.91,517.99 -641.95,516.22 -641.54,514.51 -640.54,513.07 -639.05,512.14 -637.34,511.69 -635.58,511.56 -633.81,511.63 -632.06,511.85" via=":41_2_0" dir="l" state="m"/>
    <connection from="69036" to="69768" fromLane="0" toLane="0" contPos="-4.00" shape="-637.09,529.35 -634.22,552.96 -632.20,567.29" via=":37_2_0" dir="s" state="M"/>
    <connection from="69051" to="68986" fromLane="0" toLane="0" contPos="-4.00" shape="-658.20,492.98 -656.21,490.58 -654.50,487.96 -653.07,485.18 -651.73,481.79 -650.58,477.79 -649.69,473.19 -649.11,468.02 -648.89,462.29 -649.03,456.05 -649.60,448.78 -650.29,443.09" via=":38_2_0" dir="r" state="m"/>
    <connection from="69186" to="69768" fromLane="0" toLane="0" contPos="-4.00" shape="-620.96,529.89 -623.17,531.43 -625.20,533.21 -627.01,535.21 -628.57,537.40 -629.88,539.76 -631.13,542.74 -632.04,545.85 -632.73,549.56 -633.07,553.32 -633.12,557.63 -632.82,562.47 -632.20,567.29" via=":37_1_0" dir="r" state="m"/>
    <connection from="69274" to="69051" fromLane="0" toLane="0" contPos="-4.00" shape="-703.14,504.03 -697.47,504.42 -691.78,504.45 -686.62,504.10 -682.02,503.46 -677.47,502.48 -673.01,501.15 -668.68,499.45 -664.97,497.63 -661.41,495.53 -660.98,495.25" via=":40_1_0" dir="r" state="M"/>
    <connection from="69274" to="68911" fromLane="0" toLane="0" contPos="-4.00" shape="-703.14,504.03 -684.31,505.97 -665.50,507.91" via=":40_2_0" dir="s" state="M"/>
    <connection from="69375" to="69036" fromLane="0" toLane="0" contPos="-4.00" shape="-632.60,515.30 -633.84,515.15 -635.05,515.08 -636.20,515.14 -637.21,515.35 -637.92,515.72 -638.26,516.13 -638.44,516.70 -638.44,517.61" via=":41_3_0" dir="r" state="m"/>
    <connection from="69375" to="68915" fromLane="0" toLane="0" contPos="-4.00" shape="-632.60,515.30 -643.34,513.81 -649.80,513.07" via=":41_4_0" dir="s" state="m"/>
    <connection from="69375" to="69387" fromLane="0" toLane="0" contPos="-4.00" shape="-632.60,515.30 -633.96,515.02 -635.31,514.60 -636.61,514.01 -637.85,513.26 -638.98,512.36 -639.98,511.33 -640.84,510.20 -641.57,508.99 -642.16,507.75 -642.64,506.45 -643.31,503.91 -643.70,501.33" via=":41_5_0" dir="l" state="m"/>
    <connection from="69379" to="69428" fromLane="0" toLane="0" contPos="-4.00" shape="-616.16,514.33 -590.85,518.31 -561.52,523.12" via=":39_2_0" dir="s" state="M"/>