<!-- generated on 2020-12-18 16:04:38.760888 by ipykernel_launcher.py v1_2_0+5214-53edc58fcd
-->
<connections>
	<connection contPos="-4.0" from="224" fromLane="0" keepClear="true" to="259" toLane="0"/>
	<connection contPos="-4.0" from="224" fromLane="0" keepClear="true" to="246" toLane="0"/>
	<connection contPos="-4.0" from="225" fromLane="0" keepClear="true" to="255" toLane="0"/>
	<connection contPos="-4.0" from="229" fromLane="0" keepClear="true" to="250" toLane="0"/>
	<connection contPos="-4.0" from="229" fromLane="0" keepClear="true" to="253" toLane="0"/>
	<connection contPos="-4.0" from="230" fromLane="0" keepClear="true" to="254" toLane="0"/>
	<connection contPos="-4.0" from="231" fromLane="0" keepClear="true" to="251" toLane="0"/>
	<connection contPos="-4.0" from="231" fromLane="0" keepClear="true" to="247" toLane="0"/>
	<connection contPos="-4.0" from="232" fromLane="0" keepClear="true" to="260" toLane="0"/>
	<connection contPos="-4.0" from="232" fromLane="0" keepClear="true" to="245" toLane="0"/>
	<connection contPos="-4.0" from="233" fromLane="0" keepClear="true" to="257" toLane="0"/>
	<connection contPos="-4.0" from="237" fromLane="2" keepClear="true" to="244" toLane="2"/>
	<connection contPos="-4.0" from="237" fromLane="1" keepClear="true" to="244" toLane="1"/>
	<connection contPos="-4.0" from="237" fromLane="0" keepClear="true" to="244" toLane="0"/>
	<connection contPos="-4.0" from="237" fromLane="0" keepClear="true" to="252" toLane="0"/>
	<connection contPos="-4.0" from="238" fromLane="0" keepClear="true" to="243" toLane="0"/>
	<connection contPos="-4.0" from="238" fromLane="0" keepClear="true" to="258" toLane="0"/>
	<connection contPos="-4.0" from="241" fromLane="0" keepClear="true" to="249" toLane="0"/>
	<connection contPos="-4.0" from="241" fromLane="0" keepClear="true" to="256" toLane="0"/>
	<connection contPos="-4.0" from="244" fromLane="2" keepClear="true" to="228" toLane="2"/>
	<connection contPos="-4.0" from="243" fromLane="0" keepClear="true" to="232" toLane="0"/>
	<connection contPos="-4.0" from="244" fromLane="0" keepClear="true" to="228" toLane="0"/>
	<connection contPos="-4.0" from="245" fromLane="0" keepClear="true" to="225" toLane="0"/>
	<connection contPos="-4.0" from="246" fromLane="0" keepClear="true" to="231" toLane="0"/>
	<connection contPos="-4.0" from="247" fromLane="0" keepClear="true" to="240" toLane="0"/>
	<connection contPos="-4.0" from="244" fromLane="1" keepClear="true" to="228" toLane="1"/>
	<connection contPos="-4.0" from="249" fromLane="0" keepClear="true" to="232" toLane="0"/>
	<connection contPos="-4.0" from="250" fromLane="0" keepClear="true" to="231" toLane="0"/>
	<connection contPos="-4.0" from="251" fromLane="0" keepClear="true" to="239" toLane="0"/>
	<connection contPos="-4.0" from="252" fromLane="0" keepClear="true" to="224" toLane="0"/>
	<connection contPos="-4.0" from="253" fromLane="0" keepClear="true" to="225" toLane="0"/>
	<connection contPos="-4.0" from="254" fromLane="0" keepClear="true" to="234" toLane="0"/>
	<connection contPos="-4.0" from="255" fromLane="0" keepClear="true" to="228" toLane="0"/>
	<connection contPos="-4.0" from="256" fromLane="0" keepClear="true" to="239" toLane="0"/>
	<connection contPos="-4.0" from="257" fromLane="0" keepClear="true" to="229" toLane="0"/>
	<connection contPos="-4.0" from="258" fromLane="0" keepClear="true" to="240" toLane="0"/>
	<connection contPos="-4.0" from="259" fromLane="0" keepClear="true" to="230" toLane="0"/>
	<connection contPos="-4.0" from="260" fromLane="0" keepClear="true" to="230" toLane="0"/>
</connections>
