<routes>
	<vehicle depart="0.1" departLane="0" departPos="113.88960003780221" departSpeed="14.7091" id="30" type="passenger">
		<route edges="228"/>
	</vehicle>
	<vehicle depart="0.1" departLane="0" departPos="5.803195509246921" departSpeed="7.454" id="33" type="passenger">
		<route edges="255 228"/>
	</vehicle>
	<vehicle depart="0.1" departLane="0" departPos="0" departSpeed="6.8581" id="35" type="passenger">
		<route edges="245 225 255 228"/>
	</vehicle>
	<vehicle depart="0.1" departLane="0" departPos="0" departSpeed="8.5975" id="36" type="passenger">
		<route edges="249 232 245 225 255 228"/>
	</vehicle>
</routes>
