<?xml version="1.0" encoding="UTF-8"?>

<!-- generated on Fri Dec 18 16:04:38 2020 by Eclipse SUMO netconvert Version 1.8.0
<configuration xmlns:xsi="http://www.w3.org/2001/XMLSchema-instance" xsi:noNamespaceSchemaLocation="http://sumo.dlr.de/xsd/netconvertConfiguration.xsd">

    <input>
        <node-files value="./converted_scenarios/SUMO/DEU_Muc-15_1_I-1-1/nodes.net.xml"/>
        <edge-files value="./converted_scenarios/SUMO/DEU_Muc-15_1_I-1-1/edges.net.xml"/>
        <connection-files value="./converted_scenarios/SUMO/DEU_Muc-15_1_I-1-1/_connections.net.xml"/>
        <tllogic-files value="./converted_scenarios/SUMO/DEU_Muc-15_1_I-1-1/_tll.net.xml"/>
    </input>

    <output>
        <output-file value="./converted_scenarios/SUMO/DEU_Muc-15_1_I-1-1/DEU_Muc-15_1_I-1-1.net.xml"/>
    </output>

    <processing>
        <plain.extend-edge-shape value="true"/>
        <geometry.remove.keep-edges.explicit value="true"/>
        <geometry.avoid-overlap value="true"/>
        <offset.disable-normalization value="true"/>
    </processing>

    <junctions>
        <no-turnarounds value="true"/>
        <junctions.internal-link-detail value="20"/>
    </junctions>

    <report>
        <aggregate-warnings value="5"/>
    </report>

    <random_number>
        <seed value="1234"/>
    </random_number>

</configuration>
-->

<net version="1.6" junctionCornerDetail="5" junctionLinkDetail="20" limitTurnSpeed="5.50" xmlns:xsi="http://www.w3.org/2001/XMLSchema-instance" xsi:noNamespaceSchemaLocation="http://sumo.dlr.de/xsd/net_file.xsd">

    <location netOffset="0.00,0.00" convBoundary="-117.49,-102.27,48.11,105.19" origBoundary="-117.49,-103.50,50.56,105.68" projParameter="!"/>

    <edge id=":1_0" function="internal">
        <lane id=":1_0_0" index="0" disallow="bus truck rail_fast" speed="36.11" length="2.95" width="2.50" shape="33.37,67.57 33.15,67.57 32.95,67.57 32.77,67.56 32.60,67.57 32.46,67.57 32.32,67.57 32.19,67.58 32.07,67.59 31.95,67.60 31.84,67.61 31.72,67.63 31.60,67.65 31.47,67.67 31.33,67.69 31.19,67.71 31.03,67.74 30.85,67.76 30.65,67.79 30.43,67.83"/>
    </edge>
    <edge id=":10_0" function="internal">
        <lane id=":10_0_0" index="0" disallow="bus truck rail_fast" speed="36.11" length="0.41" width="2.50" shape="-0.17,74.46 -0.23,74.06"/>
    </edge>
    <edge id=":11_0" function="internal">
        <lane id=":11_0_0" index="0" disallow="bus truck rail_fast" speed="36.11" length="2.09" width="2.50" shape="-6.84,73.31 -7.00,73.31 -7.14,73.31 -7.27,73.31 -7.38,73.31 -7.49,73.31 -7.58,73.31 -7.68,73.32 -7.76,73.33 -7.84,73.33 -7.93,73.34 -8.01,73.35 -8.10,73.37 -8.19,73.38 -8.28,73.40 -8.39,73.41 -8.50,73.43 -8.63,73.45 -8.77,73.47 -8.92,73.49"/>
    </edge>
    <edge id=":11_1" function="internal">
        <lane id=":11_1_0" index="0" disallow="rail_fast" speed="36.11" length="3.00" width="2.50" shape="-5.95,73.07 -8.92,73.49"/>
    </edge>
    <edge id=":12_0" function="internal">
        <lane id=":12_0_0" index="0" disallow="rail_fast" speed="36.11" length="10.41" width="2.50" shape="-31.16,76.70 -41.46,78.22"/>
    </edge>
    <edge id=":12_1" function="internal">
        <lane id=":12_1_0" index="0" disallow="bus truck rail_fast" speed="7.66" length="11.03" width="2.50" shape="-31.16,76.70 -32.07,76.82 -32.94,76.91 -33.76,76.98 -34.54,77.02 -35.28,77.04 -35.98,77.03 -36.63,76.99 -37.25,76.93 -37.82,76.84 -38.35,76.72 -38.84,76.58 -39.29,76.41 -39.70,76.22 -40.06,76.00 -40.38,75.76 -40.66,75.48 -40.90,75.19 -41.10,74.86 -41.25,74.51"/>
    </edge>
    <edge id=":13_0" function="internal">
        <lane id=":13_0_0" index="0" disallow="bus truck rail_fast" speed="27.21" length="7.53" width="2.50" shape="-38.98,74.11 -38.43,74.21 -37.93,74.29 -37.48,74.37 -37.07,74.44 -36.69,74.49 -36.34,74.53 -36.02,74.57 -35.71,74.59 -35.40,74.61 -35.10,74.61 -34.80,74.60 -34.49,74.59 -34.16,74.56 -33.81,74.53 -33.44,74.49 -33.02,74.43 -32.57,74.37 -32.07,74.30 -31.51,74.22"/>
    </edge>
    <edge id=":13_1" function="internal">
        <lane id=":13_1_0" index="0" disallow="rail_fast" speed="36.11" length="10.16" width="2.50" shape="-41.56,75.70 -31.51,74.22"/>
    </edge>
    <edge id=":14_0" function="internal">
        <lane id=":14_0_0" index="0" disallow="rail_fast" speed="36.11" length="7.17" width="2.50" shape="-9.30,71.02 -2.20,70.00"/>
    </edge>
    <edge id=":14_1" function="internal">
        <lane id=":14_1_0" index="0" disallow="bus truck rail_fast" speed="11.63" length="9.69" width="2.50" shape="-9.30,71.02 -8.60,70.93 -7.98,70.88 -7.41,70.85 -6.89,70.86 -6.42,70.89 -5.99,70.95 -5.58,71.05 -5.20,71.16 -4.84,71.31 -4.48,71.48 -4.12,71.67 -3.76,71.89 -3.39,72.13 -2.99,72.39 -2.57,72.68 -2.11,72.98 -1.61,73.30 -1.06,73.64 -0.45,74.00"/>
    </edge>
    <edge id=":16_0" function="internal">
        <lane id=":16_0_0" index="0" disallow="rail_fast" speed="36.11" length="2.99" width="2.50" shape="-1.70,83.39 -2.02,80.42"/>
    </edge>
    <edge id=":17_0" function="internal">
        <lane id=":17_0_0" index="0" disallow="rail_fast" speed="36.11" length="2.99" width="2.50" shape="0.47,80.16 0.79,83.14"/>
    </edge>
    <edge id=":2_0" function="internal">
        <lane id=":2_0_0" index="0" disallow="rail_fast" speed="36.11" length="5.96" width="2.50" shape="7.92,71.07 2.02,71.92"/>
    </edge>
    <edge id=":2_1" function="internal">
        <lane id=":2_1_0" index="0" disallow="bus truck rail_fast" speed="36.11" length="4.55" width="2.50" shape="7.92,71.07 7.58,71.11 7.28,71.15 7.00,71.17 6.75,71.19 6.52,71.20 6.31,71.21 6.11,71.22 5.92,71.22 5.73,71.22 5.55,71.23 5.37,71.24 5.18,71.25 4.99,71.27 4.78,71.30 4.55,71.34 4.31,71.39 4.04,71.45 3.75,71.53 3.42,71.62"/>
    </edge>
    <edge id=":20_0" function="internal">
        <lane id=":20_0_0" index="0" disallow="bus truck rail_fast" speed="7.57" length="10.62" width="2.50" shape="39.61,75.37 39.44,74.58 39.25,73.84 39.05,73.13 38.83,72.47 38.60,71.85 38.35,71.28 38.08,70.74 37.80,70.25 37.51,69.80 37.19,69.39 36.86,69.02 36.52,68.69 36.15,68.41 35.78,68.16 35.38,67.96 34.97,67.81 34.55,67.69 34.11,67.61 33.65,67.58"/>
    </edge>
    <edge id=":20_1" function="internal">
        <lane id=":20_1_0" index="0" disallow="bus truck rail_fast" speed="36.11" length="9.63" width="2.50" shape="39.61,75.37 37.83,65.84"/>
        <lane id=":20_1_1" index="1" disallow="bus truck rail_fast" speed="36.11" length="9.63" width="2.50" shape="42.06,74.88 40.29,65.41"/>
        <lane id=":20_1_2" index="2" disallow="bus truck rail_fast" speed="36.11" length="9.63" width="2.50" shape="44.51,74.38 42.75,64.99"/>
    </edge>
    <edge id=":22_0" function="internal">
        <lane id=":22_0_0" index="0" disallow="bus truck rail_fast" speed="5.94" length="8.05" width="2.50" shape="-38.55,66.36 -38.74,67.12 -38.92,67.85 -39.09,68.54 -39.23,69.19 -39.35,69.79 -39.46,70.36 -39.55,70.89 -39.62,71.37 -39.67,71.82 -39.71,72.23 -39.72,72.59 -39.72,72.92 -39.69,73.20 -39.65,73.45 -39.60,73.66 -39.52,73.82 -39.42,73.95 -39.31,74.03 -39.18,74.08"/>
    </edge>
    <edge id=":22_1" function="internal">
        <lane id=":22_1_0" index="0" disallow="bus truck rail_fast" speed="17.33" length="9.30" width="2.50" shape="-38.55,66.36 -38.71,67.02 -38.86,67.63 -38.98,68.19 -39.08,68.70 -39.17,69.17 -39.25,69.61 -39.33,70.02 -39.41,70.40 -39.50,70.77 -39.60,71.13 -39.71,71.49 -39.85,71.85 -40.02,72.21 -40.22,72.59 -40.45,72.98 -40.73,73.40 -41.05,73.86 -41.42,74.35 -41.85,74.88"/>
    </edge>
    <edge id=":23_0" function="internal">
        <lane id=":23_0_0" index="0" disallow="bus truck rail_fast" speed="11.49" length="8.20" width="2.50" shape="-41.32,74.32 -41.53,73.76 -41.70,73.25 -41.84,72.78 -41.95,72.35 -42.04,71.95 -42.10,71.58 -42.14,71.22 -42.15,70.88 -42.14,70.55 -42.11,70.22 -42.06,69.89 -41.99,69.55 -41.91,69.19 -41.81,68.81 -41.70,68.40 -41.57,67.96 -41.44,67.47 -41.29,66.95 -41.13,66.37"/>
    </edge>
    <edge id=":23_1" function="internal">
        <lane id=":23_1_0" index="0" disallow="bus truck rail_fast" speed="36.11" length="7.46" width="2.50" shape="-43.76,73.33 -43.51,72.83 -43.29,72.37 -43.09,71.97 -42.91,71.60 -42.75,71.25 -42.60,70.94 -42.47,70.64 -42.35,70.36 -42.24,70.08 -42.13,69.81 -42.03,69.52 -41.94,69.23 -41.84,68.92 -41.74,68.59 -41.63,68.23 -41.52,67.83 -41.41,67.39 -41.28,66.91 -41.13,66.37"/>
    </edge>
    <edge id=":25_0" function="internal">
        <lane id=":25_0_0" index="0" disallow="rail_fast" speed="36.11" length="8.58" width="2.50" shape="-41.66,78.24 -50.15,79.51"/>
    </edge>
    <edge id=":25_1" function="internal">
        <lane id=":25_1_0" index="0" disallow="bus truck rail_fast" speed="10.88" length="9.69" width="2.50" shape="-41.98,75.03 -42.43,75.57 -42.85,76.06 -43.24,76.49 -43.60,76.88 -43.95,77.23 -44.29,77.54 -44.62,77.81 -44.95,78.05 -45.28,78.26 -45.63,78.44 -45.99,78.60 -46.37,78.74 -46.79,78.87 -47.23,78.99 -47.72,79.10 -48.24,79.20 -48.82,79.30 -49.45,79.40 -50.15,79.51"/>
    </edge>
    <edge id=":28_0" function="internal">
        <lane id=":28_0_0" index="0" disallow="bus truck rail_fast" speed="8.10" length="7.88" width="2.50" shape="-50.57,77.05 -50.01,76.96 -49.48,76.85 -48.97,76.74 -48.48,76.61 -48.02,76.48 -47.57,76.34 -47.15,76.18 -46.75,76.01 -46.38,75.84 -46.02,75.65 -45.69,75.46 -45.38,75.25 -45.10,75.03 -44.83,74.80 -44.59,74.56 -44.37,74.31 -44.18,74.06 -44.00,73.79 -43.85,73.51"/>
    </edge>
    <edge id=":28_1" function="internal">
        <lane id=":28_1_0" index="0" disallow="rail_fast" speed="36.11" length="9.00" width="2.50" shape="-50.57,77.05 -41.66,75.72"/>
    </edge>
    <edge id=":3_0" function="internal">
        <lane id=":3_0_0" index="0" disallow="rail_fast" speed="36.11" length="5.45" width="2.50" shape="-2.00,69.97 3.39,69.20"/>
    </edge>
    <edge id=":3_1" function="internal">
        <lane id=":3_1_0" index="0" disallow="bus truck rail_fast" speed="15.77" length="6.06" width="2.50" shape="-2.19,71.37 -1.80,71.14 -1.45,70.93 -1.14,70.74 -0.85,70.56 -0.58,70.41 -0.34,70.26 -0.10,70.13 0.12,70.02 0.34,69.91 0.57,69.82 0.79,69.73 1.03,69.66 1.29,69.58 1.56,69.52 1.86,69.45 2.18,69.39 2.55,69.32 2.95,69.26 3.39,69.20"/>
    </edge>
    <edge id=":4_0" function="internal">
        <lane id=":4_0_0" index="0" disallow="bus truck rail_fast" speed="36.11" length="0.10" width="2.50" shape="31.51,65.15 31.51,65.15"/>
    </edge>
    <edge id=":5_0" function="internal">
        <lane id=":5_0_0" index="0" disallow="bus truck rail_fast" speed="36.11" length="10.53" width="2.50" shape="37.79,65.64 36.06,55.20"/>
        <lane id=":5_0_1" index="1" disallow="bus truck rail_fast" speed="36.11" length="10.53" width="2.50" shape="40.25,65.22 38.53,54.83"/>
        <lane id=":5_0_2" index="2" disallow="bus truck rail_fast" speed="36.11" length="10.53" width="2.50" shape="42.72,64.79 41.00,54.46"/>
    </edge>
    <edge id=":5_3" function="internal">
        <lane id=":5_3_0" index="0" disallow="bus truck rail_fast" speed="7.43" length="11.44" width="2.50" shape="32.49,64.90 32.99,64.75 33.45,64.56 33.88,64.33 34.27,64.06 34.63,63.75 34.96,63.40 35.25,63.01 35.50,62.58 35.72,62.11 35.91,61.60 36.07,61.05 36.19,60.46 36.27,59.82 36.32,59.15 36.34,58.44 36.32,57.69 36.27,56.90 36.18,56.07 36.06,55.20"/>
    </edge>
    <edge id=":7_0" function="internal">
        <lane id=":7_0_0" index="0" disallow="bus truck rail_fast" speed="36.11" length="2.23" width="2.36" shape="-2.54,75.86 -2.84,73.65"/>
    </edge>
    <edge id=":8_0" function="internal">
        <lane id=":8_0_0" index="0" disallow="bus truck rail_fast" speed="4.81" length="3.99" width="2.36" shape="-2.88,73.45 -2.92,73.31 -3.01,73.20 -3.12,73.12 -3.27,73.05 -3.44,73.01 -3.64,72.99 -3.85,72.99 -4.08,72.99 -4.33,73.01 -4.58,73.04 -4.83,73.08 -5.09,73.12 -5.35,73.16 -5.60,73.20 -5.84,73.24 -6.07,73.27 -6.28,73.30 -6.47,73.32 -6.64,73.32"/>
    </edge>
    <edge id=":8_1" function="internal">
        <lane id=":8_1_0" index="0" disallow="bus truck rail_fast" speed="4.04" length="2.25" width="2.36" shape="-2.88,73.45 -2.90,73.30 -2.93,73.16 -2.95,73.02 -2.98,72.89 -2.99,72.77 -3.01,72.66 -3.01,72.54 -3.02,72.44 -3.01,72.34 -3.00,72.24 -2.97,72.15 -2.94,72.06 -2.90,71.97 -2.84,71.88 -2.77,71.80 -2.69,71.72 -2.59,71.64 -2.48,71.56 -2.36,71.48"/>
    </edge>
    <edge id=":9_0" function="internal">
        <lane id=":9_0_0" index="0" disallow="bus truck rail_fast" speed="5.02" length="4.62" width="2.50" shape="3.23,71.68 2.86,71.80 2.50,71.91 2.17,72.03 1.86,72.16 1.58,72.28 1.31,72.41 1.06,72.54 0.84,72.67 0.64,72.80 0.46,72.94 0.30,73.08 0.16,73.22 0.05,73.36 -0.05,73.50 -0.12,73.65 -0.18,73.80 -0.21,73.95 -0.22,74.11 -0.20,74.27"/>
    </edge>
    <edge id=":9_1" function="internal">
        <lane id=":9_1_0" index="0" disallow="bus truck rail_fast" speed="36.11" length="0.19" width="2.50" shape="-0.28,74.10 -0.27,74.11 -0.26,74.12 -0.25,74.12 -0.24,74.13 -0.23,74.14 -0.23,74.14 -0.22,74.15 -0.22,74.16 -0.22,74.16 -0.21,74.17 -0.21,74.18 -0.21,74.19 -0.21,74.20 -0.21,74.21 -0.21,74.22 -0.21,74.23 -0.21,74.24 -0.21,74.25 -0.20,74.27"/>
    </edge>

    <edge id="224" from="1" to="2" priority="1" spreadType="center" length="28.42">
        <lane id="224_0" index="0" disallow="rail_fast" speed="36.11" length="28.42" width="2.50" customShape="1" shape="30.43,67.83 17.81,69.64 7.92,71.07"/>
    </edge>
    <edge id="225" from="3" to="4" priority="1" spreadType="center" length="28.41">
        <lane id="225_0" index="0" disallow="rail_fast" speed="36.11" length="28.41" width="2.50" customShape="1" shape="3.39,69.20 17.46,67.17 31.51,65.15"/>
    </edge>
    <edge id="228" from="5" to="6" priority="1" spreadType="center" length="168.33">
        <lane id="228_0" index="0" disallow="bus truck rail_fast" speed="36.11" length="168.33" width="2.50" customShape="1" shape="36.06,55.20 33.83,40.80 30.59,23.60 27.79,10.41 24.94,-1.23 21.09,-15.20 17.42,-27.13 13.40,-38.95 9.75,-48.76 5.71,-58.43 -0.09,-71.14 -4.59,-80.05 -10.08,-90.16 -16.26,-101.04"/>
        <lane id="228_1" index="1" disallow="bus truck rail_fast" speed="36.11" length="168.33" width="2.50" customShape="1" shape="38.53,54.83 36.29,40.34 33.03,23.05 30.21,9.79 27.35,-1.92 23.47,-15.96 19.78,-27.95 15.74,-39.84 12.06,-49.70 8.00,-59.42 2.17,-72.21 -2.35,-81.16 -7.87,-91.32 -14.08,-102.27"/>
        <lane id="228_2" index="2" disallow="bus truck rail_fast" speed="36.11" length="168.33" width="2.50" customShape="1" shape="41.00,54.46 38.74,39.88 35.47,22.51 32.64,9.18 29.76,-2.59 25.86,-16.70 22.15,-28.77 18.08,-40.72 14.37,-50.65 10.29,-60.44 4.42,-73.30 -0.13,-82.32 -5.67,-92.52 -11.91,-103.50"/>
    </edge>
    <edge id="229" from="7" to="8" priority="1" spreadType="center" length="0.24">
        <lane id="229_0" index="0" disallow="bus truck rail_fast" speed="36.11" length="0.24" width="2.36" customShape="1" shape="-2.84,73.65 -2.88,73.45"/>
    </edge>
    <edge id="230" from="9" to="10" priority="1" spreadType="center" length="0.29">
        <lane id="230_0" index="0" disallow="bus truck rail_fast" speed="36.11" length="0.29" width="2.50" customShape="1" shape="-0.20,74.27 -0.17,74.46"/>
    </edge>
    <edge id="231" from="11" to="12" priority="1" spreadType="center" length="26.14">
        <lane id="231_0" index="0" disallow="rail_fast" speed="36.11" length="26.14" width="2.50" customShape="1" shape="-8.92,73.49 -20.37,75.14 -31.16,76.70"/>
    </edge>
    <edge id="232" from="13" to="14" priority="1" spreadType="center" length="26.13">
        <lane id="232_0" index="0" disallow="rail_fast" speed="36.11" length="26.13" width="2.50" customShape="1" shape="-31.51,74.22 -20.73,72.67 -9.30,71.02"/>
    </edge>
    <edge id="233" from="15" to="16" priority="1" spreadType="center" length="8.56">
        <lane id="233_0" index="0" disallow="rail_fast" speed="36.11" length="8.56" width="2.50" customShape="1" shape="-0.99,90.42 -1.42,86.16 -1.70,83.39"/>
    </edge>
    <edge id="234" from="17" to="18" priority="1" spreadType="center" length="8.57">
        <lane id="234_0" index="0" disallow="rail_fast" speed="36.11" length="8.57" width="2.50" customShape="1" shape="0.79,83.14 1.07,85.91 1.49,90.17"/>
    </edge>
    <edge id="237" from="19" to="20" priority="1" spreadType="center" length="32.81">
        <lane id="237_0" index="0" disallow="rail_fast" speed="36.11" length="32.81" width="2.50" customShape="1" shape="45.66,105.68 42.44,89.59 39.61,75.37"/>
        <lane id="237_1" index="1" disallow="rail_fast" speed="36.11" length="32.81" width="2.50" customShape="1" shape="48.11,105.19 44.90,89.10 42.06,74.88"/>
        <lane id="237_2" index="2" disallow="rail_fast" speed="36.11" length="32.81" width="2.50" customShape="1" shape="50.56,104.70 47.35,88.61 44.51,74.38"/>
    </edge>
    <edge id="238" from="21" to="22" priority="1" spreadType="center" length="34.83">
        <lane id="238_0" index="0" disallow="rail_fast" speed="36.11" length="34.83" width="2.50" customShape="1" shape="-30.22,34.79 -34.66,51.63 -38.55,66.36"/>
    </edge>
    <edge id="239" from="23" to="24" priority="1" spreadType="center" length="34.84">
        <lane id="239_0" index="0" disallow="rail_fast" speed="36.11" length="34.84" width="2.50" customShape="1" shape="-41.13,66.37 -37.08,50.99 -32.64,34.15"/>
    </edge>
    <edge id="240" from="25" to="26" priority="1" spreadType="center" length="69.30">
        <lane id="240_0" index="0" disallow="rail_fast" speed="36.11" length="69.30" width="2.50" customShape="1" shape="-50.15,79.51 -82.88,84.58 -117.11,89.87"/>
    </edge>
    <edge id="241" from="27" to="28" priority="1" spreadType="center" length="69.28">
        <lane id="241_0" index="0" disallow="rail_fast" speed="36.11" length="69.28" width="2.50" customShape="1" shape="-117.49,87.40 -83.27,82.10 -50.57,77.05"/>
    </edge>
    <edge id="243" from="22" to="13" priority="1" spreadType="center" length="10.56">
        <lane id="243_0" index="0" disallow="bus truck rail_fast" speed="36.11" length="10.56" width="2.50" customShape="1" shape="-39.18,74.08 -38.98,74.11"/>
    </edge>
    <edge id="244" from="20" to="5" priority="1" spreadType="center" length="15.92">
        <lane id="244_0" index="0" disallow="bus truck rail_fast" speed="36.11" length="15.92" width="2.50" customShape="1" shape="37.83,65.84 37.79,65.64"/>
        <lane id="244_1" index="1" disallow="bus truck rail_fast" speed="36.11" length="15.92" width="2.50" customShape="1" shape="40.29,65.41 40.25,65.22"/>
        <lane id="244_2" index="2" disallow="bus truck rail_fast" speed="36.11" length="15.92" width="2.50" customShape="1" shape="42.75,64.99 42.72,64.79"/>
    </edge>
    <edge id="245" from="14" to="3" priority="1" spreadType="center" length="11.29">
        <lane id="245_0" index="0" disallow="rail_fast" speed="36.11" length="11.29" width="2.50" customShape="1" shape="-2.20,70.00 -2.00,69.97"/>
    </edge>
    <edge id="246" from="2" to="11" priority="1" spreadType="center" length="11.32">
        <lane id="246_0" index="0" disallow="rail_fast" speed="36.11" length="11.32" width="2.50" customShape="1" shape="2.02,71.92 -1.85,72.48 -5.95,73.07"/>
    </edge>
    <edge id="247" from="12" to="25" priority="1" spreadType="center" length="15.48">
        <lane id="247_0" index="0" disallow="rail_fast" speed="36.11" length="15.48" width="2.50" customShape="1" shape="-41.46,78.22 -41.66,78.24"/>
    </edge>
    <edge id="249" from="28" to="13" priority="1" spreadType="center" length="15.55">
        <lane id="249_0" index="0" disallow="rail_fast" speed="36.11" length="15.55" width="2.50" customShape="1" shape="-41.66,75.72 -41.56,75.70"/>
    </edge>
    <edge id="250" from="8" to="11" priority="1" spreadType="center" length="5.10">
        <lane id="250_0" index="0" disallow="bus truck rail_fast" speed="36.11" length="5.10" width="2.36" customShape="1" shape="-6.64,73.32 -6.84,73.31"/>
    </edge>
    <edge id="251" from="12" to="23" priority="1" spreadType="center" length="15.67">
        <lane id="251_0" index="0" disallow="bus truck rail_fast" speed="36.11" length="15.67" width="2.50" customShape="1" shape="-41.25,74.51 -41.32,74.32"/>
    </edge>
    <edge id="252" from="20" to="1" priority="1" spreadType="center" length="10.64">
        <lane id="252_0" index="0" disallow="bus truck rail_fast" speed="36.11" length="10.64" width="2.50" customShape="1" shape="33.65,67.58 33.37,67.57"/>
    </edge>
    <edge id="253" from="8" to="3" priority="1" spreadType="center" length="8.82">
        <lane id="253_0" index="0" disallow="bus truck rail_fast" speed="36.11" length="8.82" width="2.36" customShape="1" shape="-2.36,71.48 -2.19,71.37"/>
    </edge>
    <edge id="254" from="10" to="17" priority="1" spreadType="center" length="7.64">
        <lane id="254_0" index="0" disallow="rail_fast" speed="36.11" length="7.64" width="2.50" customShape="1" shape="-0.23,74.06 0.20,77.85 0.47,80.16"/>
    </edge>
    <edge id="255" from="4" to="5" priority="1" spreadType="center" length="10.33">
        <lane id="255_0" index="0" disallow="bus truck rail_fast" speed="36.11" length="10.33" width="2.50" customShape="1" shape="31.51,65.15 32.49,64.90"/>
    </edge>
    <edge id="256" from="28" to="23" priority="1" spreadType="center" length="12.41">
        <lane id="256_0" index="0" disallow="bus truck rail_fast" speed="36.11" length="12.41" width="2.50" customShape="1" shape="-43.85,73.51 -43.76,73.33"/>
    </edge>
    <edge id="257" from="16" to="7" priority="1" spreadType="center" length="7.56">
        <lane id="257_0" index="0" disallow="rail_fast" speed="36.11" length="7.56" width="2.50" customShape="1" shape="-2.02,80.42 -2.28,78.15 -2.54,75.86"/>
    </edge>
    <edge id="258" from="22" to="25" priority="1" spreadType="center" length="15.29">
        <lane id="258_0" index="0" disallow="bus truck rail_fast" speed="36.11" length="15.29" width="2.50" customShape="1" shape="-41.85,74.88 -41.98,75.03"/>
    </edge>
    <edge id="259" from="2" to="9" priority="1" spreadType="center" length="4.91">
        <lane id="259_0" index="0" disallow="bus truck rail_fast" speed="36.11" length="4.91" width="2.50" customShape="1" shape="3.42,71.62 3.23,71.68"/>
    </edge>
    <edge id="260" from="14" to="9" priority="1" spreadType="center" length="8.83">
        <lane id="260_0" index="0" disallow="bus truck rail_fast" speed="36.11" length="8.83" width="2.50" customShape="1" shape="-0.45,74.00 -0.28,74.10"/>
    </edge>

    <junction id="1" type="priority" x="31.89" y="67.62" incLanes="252_0" intLanes=":1_0_0" shape="33.51,68.83 33.23,66.32 32.12,66.33 31.73,66.36 31.35,66.42 30.88,66.49 30.25,66.59 30.61,69.06 31.68,68.90 32.05,68.85 32.43,68.83 32.89,68.82">
        <request index="0" response="0" foes="0" cont="0"/>
    </junction>
    <junction id="10" type="priority" x="-0.23" y="74.06" incLanes="230_0" intLanes=":10_0_0" shape="-1.47,74.20 1.01,73.92 0.97,73.76 -1.43,74.35">
        <request index="0" response="0" foes="0" cont="0"/>
    </junction>
    <junction id="11" type="priority" x="-7.44" y="73.28" incLanes="250_0 246_0" intLanes=":11_0_0 :11_1_0" shape="-5.78,74.30 -6.13,71.83 -9.10,72.26 -8.74,74.73">
        <request index="0" response="00" foes="10" cont="0"/>
        <request index="1" response="01" foes="01" cont="0"/>
    </junction>
    <junction id="12" type="priority" x="-33.31" y="77.01" incLanes="231_0" intLanes=":12_0_0 :12_1_0" shape="-30.99,77.93 -31.34,75.46 -34.10,75.70 -36.39,75.57 -38.20,75.05 -39.53,74.16 -40.38,72.88 -40.76,71.23 -42.27,75.27 -42.11,76.21 -42.16,76.59 -42.32,76.87 -42.58,77.07 -42.96,77.17 -42.59,79.65">
        <request index="0" response="00" foes="00" cont="0"/>
        <request index="1" response="00" foes="00" cont="0"/>
    </junction>
    <junction id="13" type="priority" x="-33.65" y="74.53" incLanes="243_0 249_0" intLanes=":13_0_0 :13_1_0" shape="-31.33,75.46 -31.69,72.98 -37.75,68.11 -40.61,72.27 -40.70,73.39 -40.85,73.81 -41.09,74.14 -41.41,74.36 -41.80,74.48 -41.44,76.95">
        <request index="0" response="00" foes="10" cont="0"/>
        <request index="1" response="01" foes="01" cont="0"/>
    </junction>
    <junction id="14" type="priority" x="-7.79" y="70.80" incLanes="232_0" intLanes=":14_0_0 :14_1_0" shape="-0.47,76.08 0.24,72.31 -0.02,71.57 0.04,71.29 0.22,71.07 0.53,70.91 0.96,70.81 0.60,68.33 -9.48,69.79 -9.12,72.26">
        <request index="0" response="00" foes="00" cont="0"/>
        <request index="1" response="00" foes="00" cont="0"/>
    </junction>
    <junction id="15" type="dead_end" x="-0.99" y="90.42" incLanes="" intLanes="" shape="0.25,90.30 -2.24,90.54"/>
    <junction id="16" type="priority" x="-1.85" y="81.91" incLanes="233_0" intLanes=":16_0_0" shape="-2.94,83.52 -0.45,83.27 -0.78,80.28 -3.26,80.56">
        <request index="0" response="0" foes="0" cont="0"/>
    </junction>
    <junction id="17" type="priority" x="0.64" y="81.65" incLanes="254_0" intLanes=":17_0_0" shape="-0.45,83.26 2.03,83.01 1.71,80.02 -0.77,80.31">
        <request index="0" response="0" foes="0" cont="0"/>
    </junction>
    <junction id="18" type="dead_end" x="1.49" y="90.17" incLanes="234_0" intLanes="" shape="2.74,90.05 0.25,90.30"/>
    <junction id="19" type="dead_end" x="48.11" y="105.19" incLanes="" intLanes="" shape="51.78,104.46 44.43,105.92"/>
    <junction id="2" type="priority" x="3.76" y="71.67" incLanes="224_0" intLanes=":2_0_0 :2_1_0" shape="8.09,72.31 7.74,69.83 1.86,70.78 2.20,73.16">
        <request index="0" response="00" foes="00" cont="0"/>
        <request index="1" response="00" foes="00" cont="0"/>
    </junction>
    <junction id="20" type="priority" x="41.68" y="73.01" incLanes="237_0 237_1 237_2" intLanes=":20_0_0 :20_1_0 :20_1_1 :20_1_2" shape="38.38,75.62 45.73,74.14 43.84,63.96 36.48,65.40 36.45,66.22 36.28,66.46 35.99,66.60 35.60,66.62 35.10,66.53 31.85,68.88">
        <request index="0" response="0000" foes="0000" cont="0"/>
        <request index="1" response="0000" foes="0000" cont="0"/>
        <request index="2" response="0000" foes="0000" cont="0"/>
        <request index="3" response="0000" foes="0000" cont="0"/>
    </junction>
    <junction id="21" type="dead_end" x="-30.22" y="34.79" incLanes="" intLanes="" shape="-31.43,34.47 -29.02,35.11"/>
    <junction id="22" type="priority" x="-39.10" y="68.47" incLanes="238_0" intLanes=":22_0_0 :22_1_0" shape="-38.27,75.29 -33.88,73.30 -36.64,72.80 -37.42,71.91 -37.79,70.59 -37.77,68.85 -37.34,66.67 -39.75,66.04 -40.25,68.07 -40.61,69.62 -40.96,70.87 -41.48,72.05 -42.30,73.35 -43.57,74.99 -41.01,75.78 -40.29,75.12 -39.86,74.98 -39.38,74.96 -38.85,75.06">
        <request index="0" response="00" foes="00" cont="0"/>
        <request index="1" response="00" foes="00" cont="0"/>
    </junction>
    <junction id="23" type="priority" x="-41.52" y="67.84" incLanes="251_0 256_0" intLanes=":23_0_0 :23_1_0" shape="-42.21,75.34 -38.62,75.25 -40.17,73.60 -40.52,72.33 -40.60,70.75 -40.40,68.87 -39.92,66.68 -42.34,66.05 -42.80,68.00 -43.10,69.52 -43.44,70.76 -43.98,71.87 -44.90,72.99 -46.37,74.27 -43.70,75.16 -43.22,74.86 -42.98,74.85 -42.73,74.92 -42.47,75.09">
        <request index="0" response="10" foes="10" cont="0"/>
        <request index="1" response="00" foes="01" cont="0"/>
    </junction>
    <junction id="24" type="dead_end" x="-32.64" y="34.15" incLanes="239_0" intLanes="" shape="-33.85,33.83 -31.43,34.47"/>
    <junction id="25" type="priority" x="-48.63" y="79.28" incLanes="247_0 258_0" intLanes=":25_0_0 :25_1_0" shape="-40.17,79.29 -40.53,76.81 -41.17,76.80 -41.33,76.69 -41.37,76.51 -41.30,76.27 -41.07,75.87 -42.16,72.87 -44.09,75.47 -45.35,76.47 -46.82,77.27 -48.48,77.87 -50.34,78.28 -49.96,80.75">
        <request index="0" response="00" foes="10" cont="0"/>
        <request index="1" response="01" foes="01" cont="0"/>
    </junction>
    <junction id="26" type="dead_end" x="-117.11" y="89.87" incLanes="240_0" intLanes="" shape="-116.92,91.10 -117.30,88.63"/>
    <junction id="27" type="dead_end" x="-117.49" y="87.40" incLanes="" intLanes="" shape="-117.30,88.63 -117.69,86.16"/>
    <junction id="28" type="priority" x="-49.03" y="76.81" incLanes="241_0" intLanes=":28_0_0 :28_1_0" shape="-41.48,76.95 -41.85,74.48 -42.55,74.46 -42.71,74.33 -42.75,74.13 -42.68,73.84 -42.47,73.47 -43.71,70.39 -45.52,73.08 -46.63,74.09 -47.87,74.89 -49.25,75.46 -50.76,75.81 -50.38,78.28">
        <request index="0" response="00" foes="00" cont="0"/>
        <request index="1" response="00" foes="00" cont="0"/>
    </junction>
    <junction id="3" type="priority" x="3.39" y="69.20" incLanes="245_0 253_0" intLanes=":3_0_0 :3_1_0" shape="3.65,70.42 3.30,67.95 -5.16,69.16 -4.80,71.64 -4.19,71.69 -3.99,71.84 -3.86,72.08 -3.79,72.39 -3.80,72.79 -1.75,76.08">
        <request index="0" response="00" foes="10" cont="0"/>
        <request index="1" response="01" foes="01" cont="0"/>
    </junction>
    <junction id="4" type="priority" x="31.51" y="65.15" incLanes="225_0" intLanes=":4_0_0" shape="31.88,66.34 31.27,63.92 31.63,66.39 31.76,66.37">
        <request index="0" response="0" foes="0" cont="0"/>
    </junction>
    <junction id="5" type="priority" x="38.90" y="57.22" incLanes="244_0 244_1 244_2 255_0" intLanes=":5_0_0 :5_0_1 :5_0_2 :5_3_0" shape="36.68,66.51 44.10,65.38 42.24,54.27 34.82,55.39 30.38,64.15 34.35,65.56 35.48,65.22 35.92,65.30 36.26,65.54 36.51,65.94">
        <request index="0" response="0000" foes="1000" cont="0"/>
        <request index="1" response="0000" foes="1000" cont="0"/>
        <request index="2" response="0000" foes="1000" cont="0"/>
        <request index="3" response="0111" foes="0111" cont="0"/>
    </junction>
    <junction id="6" type="dead_end" x="-14.08" y="-102.27" incLanes="228_0 228_1 228_2" intLanes="" shape="-17.34,-100.42 -10.82,-104.12"/>
    <junction id="7" type="priority" x="-2.71" y="74.40" incLanes="257_0" intLanes=":7_0_0" shape="-3.78,76.01 -1.30,75.72 -1.80,72.77 -4.14,73.12">
        <request index="0" response="0" foes="0" cont="0"/>
    </junction>