<!-- generated on 2020-12-18 16:04:38.601218 by ipykernel_launcher.py v1_2_0+5214-53edc58fcd
-->
<edges>
	<edge from="1" function="normal" id="224" length="28.421349055636146" numLanes="1" priority="1" speed="36.11111111111111" spreadType="center" to="2">
		<lane allow="moped bicycle pedestrian custom1 trailer evehicle rail_urban ship private truck vip custom2 authority delivery rail_electric taxi tram army hov coach motorcycle passenger bus rail emergency" index="0" length="28.421349055636146" shape="31.8938,67.61529999999999 17.8144,69.644 3.7628,71.66745" speed="36.11111111111111" width="2.4999352631618312"/>
	</edge>
	<edge from="3" function="normal" id="225" length="28.410867923645267" numLanes="1" priority="1" speed="36.11111111111111" spreadType="center" to="4">
		<lane allow="moped bicycle pedestrian custom1 trailer evehicle rail_urban ship private truck vip custom2 authority delivery rail_electric taxi tram army hov coach motorcycle passenger bus rail emergency" index="0" length="28.410867923645267" shape="3.3918999999999997,69.19535 17.4575,67.16965 31.51275,65.14625" speed="36.11111111111111" width="2.4974014535112268"/>
	</edge>
	<edge from="5" function="normal" id="228" length="168.32633428035948" numLanes="3" priority="1" speed="36.11111111111111" spreadType="center" to="6">
		<lane allow="moped bicycle pedestrian custom1 trailer evehicle rail_urban ship private vip custom2 authority delivery rail_electric taxi tram army hov coach motorcycle passenger rail emergency" index="0" length="168.32633428035948" shape="36.427899999999994,57.577600000000004 33.829049999999995,40.8014 30.5896,23.60215 27.788400000000003,10.4108 24.94435,-1.2303 21.08705,-15.197 17.421100000000003,-27.131 13.40035,-38.9515 9.745000000000001,-48.762100000000004 5.70745,-58.4303 -0.09409999999999996,-71.14475 -4.5881,-80.05435 -10.077950000000001,-90.1554 -16.26215,-101.04390000000001" speed="36.11111111111111" width="2.498677610257072"/>
		<lane allow="moped bicycle pedestrian custom1 trailer evehicle rail_urban ship private vip custom2 authority delivery rail_electric taxi tram army hov coach motorcycle passenger rail emergency" index="1" length="168.32633428035948" shape="38.9025,57.2251 36.2869,40.34245 33.02885,23.0506 30.21065,9.788350000000001 27.3493,-1.9153 23.469549999999998,-15.956949999999999 19.7821,-27.955 15.7381,-39.8389 12.0616,-49.70225 8.002,-59.42274999999999 2.1694500000000003,-72.20625 -2.3475,-81.1648 -7.8653,-91.3212 -14.082650000000001,-102.26845" speed="36.11111111111111" width="2.499924098847805"/>
		<lane allow="moped bicycle pedestrian custom1 trailer evehicle rail_urban ship private vip custom2 authority delivery rail_electric taxi tram army hov coach motorcycle passenger rail emergency" index="2" length="168.32633428035948" shape="41.37395,56.846450000000004 38.74415,39.88145 35.47115,22.51485 32.636,9.1801 29.7566,-2.5907999999999998 25.855649999999997,-16.704250000000002 22.14595,-28.7698 18.078200000000002,-40.719350000000006 14.3733,-50.6541 10.2865,-60.43795 4.41735,-73.29974999999999 -0.12880000000000003,-82.3167 -5.6720500000000005,-92.5214 -11.90595,-103.498" speed="36.11111111111111" width="2.499945631408812"/>
	</edge>
	<edge from="7" function="normal" id="229" length="0.2417025006166797" numLanes="1" priority="1" speed="36.11111111111111" spreadType="center" to="8">
		<lane allow="moped bicycle pedestrian custom1 trailer evehicle rail_urban ship private vip custom2 authority delivery rail_electric taxi tram army hov coach motorcycle passenger rail emergency" index="0" length="0.2417025006166797" shape="-2.70965,74.39994999999999 -2.7253,74.294 -2.749,74.16149999999999" speed="36.11111111111111" width="2.3597646408063677"/>
	</edge>
	<edge from="9" function="normal" id="230" length="0.2875929376585445" numLanes="1" priority="1" speed="36.11111111111111" spreadType="center" to="10">
		<lane allow="moped bicycle pedestrian custom1 trailer evehicle rail_urban ship private vip custom2 authority delivery rail_electric taxi tram army hov coach motorcycle passenger rail emergency" index="0" length="0.2875929376585445" shape="-0.34485000000000005,73.8035 -0.25105,73.93594999999999 -0.23310000000000008,74.05995" speed="36.11111111111111" width="2.499747837282792"/>
	</edge>
	<edge from="11" function="normal" id="231" length="26.13530589371974" numLanes="1" priority="1" speed="36.11111111111111" spreadType="center" to="12">
		<lane allow="moped bicycle pedestrian custom1 trailer evehicle rail_urban ship private truck vip custom2 authority delivery rail_electric taxi tram army hov coach motorcycle passenger bus rail emergency" index="0" length="26.13530589371974" shape="-7.44475,73.28084999999999 -20.3696,75.14255 -33.31315,77.00645" speed="36.11111111111111" width="2.499834654532175"/>
	</edge>
	<edge from="13" function="normal" id="232" length="26.133644230970233" numLanes="1" priority="1" speed="36.11111111111111" spreadType="center" to="14">
		<lane allow="moped bicycle pedestrian custom1 trailer evehicle rail_urban ship private truck vip custom2 authority delivery rail_electric taxi tram army hov coach motorcycle passenger bus rail emergency" index="0" length="26.133644230970233" shape="-33.65325,74.53 -20.726,72.66805 -7.7865,70.8046" speed="36.11111111111111" width="2.499447716996688"/>
	</edge>
	<edge from="15" function="normal" id="233" length="8.55599149871874" numLanes="1" priority="1" speed="36.11111111111111" spreadType="center" to="16">
		<lane allow="moped bicycle pedestrian custom1 trailer evehicle rail_urban ship private truck vip custom2 authority delivery rail_electric taxi tram army hov coach motorcycle passenger bus rail emergency" index="0" length="8.55599149871874" shape="-0.9943000000000001,90.41980000000001 -1.4208999999999998,86.158 -1.84645,81.90635" speed="36.11111111111111" width="2.4999419393257925"/>
	</edge>
	<edge from="17" function="normal" id="234" length="8.565245352411916" numLanes="1" priority="1" speed="36.11111111111111" spreadType="center" to="18">
		<lane allow="moped bicycle pedestrian custom1 trailer evehicle rail_urban ship private truck vip custom2 authority delivery rail_electric taxi tram army hov coach motorcycle passenger bus rail emergency" index="0" length="8.565245352411916" shape="0.6401,81.64814999999999 1.06665,85.90899999999999 1.49325,90.1708" speed="36.11111111111111" width="2.4999314490601536"/>
	</edge>
	<edge from="19" function="normal" id="237" length="32.80672164092021" numLanes="3" priority="1" speed="36.11111111111111" spreadType="center" to="20">
		<lane allow="moped bicycle pedestrian custom1 trailer evehicle rail_urban ship private truck vip custom2 authority delivery rail_electric taxi tram army hov coach motorcycle passenger bus rail emergency" index="0" length="32.80672164092021" shape="45.65555,105.67975000000001 42.4442,89.5895 39.234700000000004,73.5075" speed="36.11111111111111" width="2.498670726606448"/>
		<lane allow="moped bicycle pedestrian custom1 trailer evehicle rail_urban ship private truck vip custom2 authority delivery rail_electric taxi tram army hov coach motorcycle passenger bus rail emergency" index="1" length="32.80672164092021" shape="48.1072,105.19040000000001 44.895849999999996,89.10015000000001 41.6828,73.00245000000001" speed="36.11111111111111" width="2.499970983831612"/>
		<lane allow="moped bicycle pedestrian custom1 trailer evehicle rail_urban ship private truck vip custom2 authority delivery rail_electric taxi tram army hov coach motorcycle passenger bus rail emergency" index="2" length="32.80672164092021" shape="50.55885,104.70105000000001 47.3475,88.61085 44.135999999999996,72.51975" speed="36.11111111111111" width="2.4998927196981855"/>
	</edge>
	<edge from="21" function="normal" id="238" length="34.83360089177637" numLanes="1" priority="1" speed="36.11111111111111" spreadType="center" to="22">
		<lane allow="moped bicycle pedestrian custom1 trailer evehicle rail_urban ship private truck vip custom2 authority delivery rail_electric taxi tram army hov coach motorcycle passenger bus rail emergency" index="0" length="34.83360089177637" shape="-30.2235,34.789249999999996 -34.6623,51.62545 -39.103750000000005,68.4719" speed="36.11111111111111" width="2.499391015827659"/>
	</edge>
	<edge from="23" function="normal" id="239" length="34.84363530922835" numLanes="1" priority="1" speed="36.11111111111111" spreadType="center" to="24">
		<lane allow="moped bicycle pedestrian custom1 trailer evehicle rail_urban ship private truck vip custom2 authority delivery rail_electric taxi tram army hov coach motorcycle passenger bus rail emergency" index="0" length="34.84363530922835" shape="-41.5231,67.8441 -37.07965,50.98805 -32.64085,34.1516" speed="36.11111111111111" width="2.499931167052405"/>
	</edge>
	<edge from="25" function="normal" id="240" length="69.30156622794266" numLanes="1" priority="1" speed="36.11111111111111" spreadType="center" to="26">
		<lane allow="moped bicycle pedestrian custom1 trailer evehicle rail_urban ship private truck vip custom2 authority delivery rail_electric taxi tram army hov coach motorcycle passenger bus rail emergency" index="0" length="69.30156622794266" shape="-48.625550000000004,79.2765 -82.88425000000001,84.5755 -117.11285000000001,89.8688" speed="36.11111111111111" width="2.499972953853705"/>
	</edge>
	<edge from="27" function="normal" id="241" length="69.27570045050193" numLanes="1" priority="1" speed="36.11111111111111" spreadType="center" to="28">
		<lane allow="moped bicycle pedestrian custom1 trailer evehicle rail_urban ship private truck vip custom2 authority delivery rail_electric taxi tram army hov coach motorcycle passenger bus rail emergency" index="0" length="69.27570045050193" shape="-117.49495,87.39815 -83.2663,82.1049 -49.03305,76.81085" speed="36.11111111111111" width="2.4984483384693075"/>
	</edge>
	<edge from="20" function="normal" id="244" length="15.915832499154785" numLanes="3" priority="1" speed="36.11111111111111" spreadType="center" to="5">
		<lane allow="moped bicycle pedestrian custom1 trailer evehicle rail_urban ship private vip custom2 authority delivery rail_electric taxi tram army hov coach motorcycle passenger rail emergency" index="0" length="15.915832499154785" shape="39.234700000000004,73.5075 37.148300000000006,62.14465 36.427899999999994,57.577600000000004" speed="36.11111111111111" width="2.498670726606448"/>
		<lane allow="moped bicycle pedestrian custom1 trailer evehicle rail_urban ship private vip custom2 authority delivery rail_electric taxi tram army hov coach motorcycle passenger rail emergency" index="1" length="15.915832499154785" shape="41.6828,73.00245000000001 39.6156,61.741550000000004 38.9025,57.2251" speed="36.11111111111111" width="2.5001366542651193"/>
		<lane allow="moped bicycle pedestrian custom1 trailer evehicle rail_urban ship private vip custom2 authority delivery rail_electric taxi tram army hov coach motorcycle passenger rail emergency" index="2" length="15.915832499154785" shape="44.135999999999996,72.51975 42.082899999999995,61.338449999999995 41.37395,56.846450000000004" speed="36.11111111111111" width="2.4998927196981855"/>
	</edge>
	<edge from="22" function="normal" id="243" length="10.562589721593206" numLanes="1" priority="1" speed="36.11111111111111" spreadType="center" to="13">
		<lane allow="moped bicycle pedestrian custom1 trailer evehicle rail_urban ship private vip custom2 authority delivery rail_electric taxi tram army hov coach motorcycle passenger rail emergency" index="0" length="10.562589721593206" shape="-39.103750000000005,68.4719 -39.35015,69.61410000000001 -39.4723,70.7859 -39.39425,71.9597 -38.9988,73.06165 -38.21725,73.92745 -37.16,74.4331 -36.0018,74.63785 -34.82345,74.6462 -33.65325,74.53" speed="36.11111111111111" width="2.499391015827659"/>
	</edge>
	<edge from="14" function="normal" id="245" length="11.293640341630264" numLanes="1" priority="1" speed="36.11111111111111" spreadType="center" to="3">
		<lane allow="moped bicycle pedestrian custom1 trailer evehicle rail_urban ship private truck vip custom2 authority delivery rail_electric taxi tram army hov coach motorcycle passenger bus rail emergency" index="0" length="11.293640341630264" shape="-7.7865,70.8046 -2.2055,70.00104999999999 3.3918999999999997,69.19535" speed="36.11111111111111" width="2.499328311766985"/>
	</edge>
	<edge from="2" function="normal" id="246" length="11.323084239262041" numLanes="1" priority="1" speed="36.11111111111111" spreadType="center" to="11">
		<lane allow="moped bicycle pedestrian custom1 trailer evehicle rail_urban ship private truck vip custom2 authority delivery rail_electric taxi tram army hov coach motorcycle passenger bus rail emergency" index="0" length="11.323084239262041" shape="3.7628,71.66745 -1.84945,72.47555 -7.44475,73.28084999999999" speed="36.11111111111111" width="2.499834654532175"/>
	</edge>
	<edge from="12" function="normal" id="247" length="15.479752057297564" numLanes="1" priority="1" speed="36.11111111111111" spreadType="center" to="25">
		<lane allow="moped bicycle pedestrian custom1 trailer evehicle rail_urban ship private truck vip custom2 authority delivery rail_electric taxi tram army hov coach motorcycle passenger bus rail emergency" index="0" length="15.479752057297564" shape="-33.31315,77.00645 -40.97475,78.14314999999999 -48.625550000000004,79.2765" speed="36.11111111111111" width="2.4999406592957314"/>
	</edge>
	<edge from="28" function="normal" id="249" length="15.548007099532413" numLanes="1" priority="1" speed="36.11111111111111" spreadType="center" to="13">
		<lane allow="moped bicycle pedestrian custom1 trailer evehicle rail_urban ship private truck vip custom2 authority delivery rail_electric taxi tram army hov coach motorcycle passenger bus rail emergency" index="0" length="15.548007099532413" shape="-49.03305,76.81085 -41.342749999999995,75.6704 -33.65325,74.53" speed="36.11111111111111" width="2.4984483384693075"/>
	</edge>
	<edge from="8" function="normal" id="250" length="5.0987593668072595" numLanes="1" priority="1" speed="36.11111111111111" spreadType="center" to="11">
		<lane allow="moped bicycle pedestrian custom1 trailer evehicle rail_urban ship private vip custom2 authority delivery rail_electric taxi tram army hov coach motorcycle passenger rail emergency" index="0" length="5.0987593668072595" shape="-2.749,74.16149999999999 -3.3757,73.40235 -4.36435,73.13575 -5.3934,73.09540000000001 -6.42195,73.15905000000001 -7.44475,73.28084999999999" speed="36.11111111111111" width="2.3597646408063677"/>
	</edge>
	<edge from="12" function="normal" id="251" length="15.671055268433713" numLanes="1" priority="1" speed="36.11111111111111" spreadType="center" to="23">
		<lane allow="moped bicycle pedestrian custom1 trailer evehicle rail_urban ship private vip custom2 authority delivery rail_electric taxi tram army hov coach motorcycle passenger rail emergency" index="0" length="15.671055268433713" shape="-33.31315,77.00645 -34.888149999999996,77.16085000000001 -36.539,77.14345 -38.25895,76.8237 -39.93965,75.99115 -41.2405,74.54849999999999 -41.89255,72.7878 -42.02325,71.0376 -41.856049999999996,69.3924 -41.5231,67.8441" speed="36.11111111111111" width="2.499931167052405"/>
	</edge>
	<edge from="20" function="normal" id="252" length="10.642177009004774" numLanes="1" priority="1" speed="36.11111111111111" spreadType="center" to="1">
		<lane allow="moped bicycle pedestrian custom1 trailer evehicle rail_urban ship private vip custom2 authority delivery rail_electric taxi tram army hov coach motorcycle passenger rail emergency" index="0" length="10.642177009004774" shape="39.234700000000004,73.5075 38.77235,71.78395 38.026650000000004,70.1742 37.3231,69.22325000000001 36.4349,68.44345 35.3882,67.89445 34.2439,67.5964 32.4711,67.5504 31.8938,67.61529999999999" speed="36.11111111111111" width="2.498670726606448"/>
	</edge>
	<edge from="8" function="normal" id="253" length="8.824757062085109" numLanes="1" priority="1" speed="36.11111111111111" spreadType="center" to="3">
		<lane allow="moped bicycle pedestrian custom1 trailer evehicle rail_urban ship private vip custom2 authority delivery rail_electric taxi tram army hov coach motorcycle passenger rail emergency" index="0" length="8.824757062085109" shape="-2.749,74.16149999999999 -2.57915,72.41785 -1.5555999999999999,70.99520000000001 -0.03975000000000001,70.08515 1.64645,69.53215 3.3918999999999997,69.19535" speed="36.11111111111111" width="2.3597646408063677"/>
	</edge>
	<edge from="10" function="normal" id="254" length="7.638275819134693" numLanes="1" priority="1" speed="36.11111111111111" spreadType="center" to="17">
		<lane allow="moped bicycle pedestrian custom1 trailer evehicle rail_urban ship private truck vip custom2 authority delivery rail_electric taxi tram army hov coach motorcycle passenger bus rail emergency" index="0" length="7.638275819134693" shape="-0.23310000000000008,74.05995 0.2036,77.8545 0.6401,81.64814999999999" speed="36.11111111111111" width="2.499747837282792"/>
	</edge>
	<edge from="4" function="normal" id="255" length="10.332156510423182" numLanes="1" priority="1" speed="36.11111111111111" spreadType="center" to="5">
		<lane allow="moped bicycle pedestrian custom1 trailer evehicle rail_urban ship private vip custom2 authority delivery rail_electric taxi tram army hov coach motorcycle passenger rail emergency" index="0" length="10.332156510423182" shape="31.51275,65.14625 33.28815,64.69675000000001 34.37115,64.14880000000001 35.291700000000006,63.35965 35.967600000000004,62.3529 36.37405,61.20955 36.57215,59.4003 36.427899999999994,57.577600000000004" speed="36.11111111111111" width="2.4974014535112268"/>
	</edge>
	<edge from="28" function="normal" id="256" length="12.40618122660506" numLanes="1" priority="1" speed="36.11111111111111" spreadType="center" to="23">
		<lane allow="moped bicycle pedestrian custom1 trailer evehicle rail_urban ship private vip custom2 authority delivery rail_electric taxi tram army hov coach motorcycle passenger rail emergency" index="0" length="12.40618122660506" shape="-49.03305,76.81085 -48.0283,76.57875 -47.0633,76.203 -46.1644,75.68895 -45.34855,75.0513 -44.6205,74.31450000000001 -43.97855,73.50139999999999 -43.41735,72.63045 -42.500299999999996,70.77289999999999 -41.802800000000005,68.8214 -41.5231,67.8441" speed="36.11111111111111" width="2.4984483384693075"/>
	</edge>
	<edge from="16" function="normal" id="257" length="7.5558689289301615" numLanes="1" priority="1" speed="36.11111111111111" spreadType="center" to="7">
		<lane allow="moped bicycle pedestrian custom1 trailer evehicle rail_urban ship private truck vip custom2 authority delivery rail_electric taxi tram army hov coach motorcycle passenger bus rail emergency" index="0" length="7.5558689289301615" shape="-1.84645,81.90635 -2.27865,78.1491 -2.70965,74.39994999999999" speed="36.11111111111111" width="2.4993831979110364"/>
	</edge>
	<edge from="22" function="normal" id="258" length="15.28828361898703" numLanes="1" priority="1" speed="36.11111111111111" spreadType="center" to="25">
		<lane allow="moped bicycle pedestrian custom1 trailer evehicle rail_urban ship private vip custom2 authority delivery rail_electric taxi tram army hov coach motorcycle passenger rail emergency" index="0" length="15.28828361898703" shape="-39.103750000000005,68.4719 -39.4414,69.64455 -40.27875,71.93180000000001 -41.39905,74.12585 -42.1185,75.1981 -42.941,76.191 -43.882450000000006,77.095 -44.94325,77.8815 -46.11195,78.51939999999999 -47.356300000000005,78.9856 -48.625550000000004,79.2765" speed="36.11111111111111" width="2.499391015827659"/>
	</edge>
	<edge from="2" function="normal" id="259" length="4.907025039922171" numLanes="1" priority="1" speed="36.11111111111111" spreadType="center" to="9">
		<lane allow="moped bicycle pedestrian custom1 trailer evehicle rail_urban ship private vip custom2 authority delivery rail_electric taxi tram army hov coach motorcycle passenger rail emergency" index="0" length="4.907025039922171" shape="3.7628,71.66745 2.4726,71.9058 1.29255,72.2559 0.3301,72.75205 -0.1633,73.2594 -0.34485000000000005,73.8035" speed="36.11111111111111" width="2.500503255346805"/>
	</edge>
	<edge from="14" function="normal" id="260" length="8.825924776330938" numLanes="1" priority="1" speed="36.11111111111111" spreadType="center" to="9">
		<lane allow="moped bicycle pedestrian custom1 trailer evehicle rail_urban ship private vip custom2 authority delivery rail_electric taxi tram army hov coach motorcycle passenger rail emergency" index="0" length="8.825924776330938" shape="-7.7865,70.8046 -6.268,70.64925 -4.67705,70.6487 -2.99,70.98320000000001 -1.4316,71.93199999999999 -0.34485000000000005,73.8035" speed="36.11111111111111" width="2.49962737222971"/>
	</edge>
</edges>
