<!-- generated on 2020-12-18 16:04:38.686595 by ipykernel_launcher.py v1_2_0+5214-53edc58fcd
-->
<nodes>
	<node id="1" type="from" x="31.8938" y="67.61529999999999"/>
	<node id="2" type="to" x="3.7628" y="71.66745"/>
	<node id="3" type="from" x="3.3918999999999997" y="69.19535"/>
	<node id="4" type="to" x="31.51275" y="65.14625"/>
	<node id="5" type="from" x="38.901450000000004" y="57.21638333333334"/>
	<node id="6" type="to" x="-14.083583333333332" y="-102.27011666666668"/>
	<node id="7" type="from" x="-2.70965" y="74.39994999999999"/>
	<node id="8" type="to" x="-2.749" y="74.16149999999999"/>
	<node id="9" type="from" x="-0.34485000000000005" y="73.8035"/>
	<node id="10" type="to" x="-0.23310000000000008" y="74.05995"/>
	<node id="11" type="from" x="-7.44475" y="73.28084999999999"/>
	<node id="12" type="to" x="-33.31315" y="77.00645"/>
	<node id="13" type="from" x="-33.65325" y="74.53"/>
	<node id="14" type="to" x="-7.7865" y="70.8046"/>
	<node id="15" type="from" x="-0.9943000000000001" y="90.41980000000001"/>
	<node id="16" type="to" x="-1.84645" y="81.90635"/>
	<node id="17" type="from" x="0.6401" y="81.64814999999999"/>
	<node id="18" type="to" x="1.49325" y="90.1708"/>
	<node id="19" type="from" x="48.1072" y="105.19040000000001"/>
	<node id="20" type="to" x="41.6845" y="73.0099"/>
	<node id="21" type="from" x="-30.2235" y="34.789249999999996"/>
	<node id="22" type="to" x="-39.103750000000005" y="68.4719"/>
	<node id="23" type="from" x="-41.5231" y="67.8441"/>
	<node id="24" type="to" x="-32.64085" y="34.1516"/>
	<node id="25" type="from" x="-48.625550000000004" y="79.2765"/>
	<node id="26" type="to" x="-117.11285000000001" y="89.8688"/>
	<node id="27" type="from" x="-117.49495" y="87.39815"/>
	<node id="28" type="to" x="-49.03305" y="76.81085"/>
</nodes>
