<routes>
	<vehicle depart="0.1" departLane="0" departPos="20.0" departSpeed="3.5" id="1" type="bicycle">
		<route edges="14 13 12 11"/>
	</vehicle>
	<vehicle depart="0.1" departLane="0" departPos="25.0" departSpeed="0.0" id="2" type="passenger">
		<route edges="12"/>
	</vehicle>
	<vehicle depart="0.1" departLane="0" departPos="16.0" departSpeed="0.0" id="3" type="passenger">
		<route edges="12"/>
	</vehicle>
	<vehicle depart="0.1" departLane="0" departPos="12.0" departSpeed="0.0" id="4" type="passenger">
		<route edges="12"/>
	</vehicle>
	<vehicle depart="0.1" departLane="0" departPos="15.0" departSpeed="0.0" id="5" type="passenger">
		<route edges="13"/>
	</vehicle>
	<vehicle depart="0.1" departLane="0" departPos="28.0" departSpeed="0.0" id="6" type="passenger">
		<route edges="13"/>
	</vehicle>
	<vehicle depart="0.1" departLane="0" departPos="24.0" departSpeed="0.0" id="7" type="passenger">
		<route edges="13"/>
	</vehicle>
	<vehicle depart="0.1" departLane="0" departPos="24.0" departSpeed="0.0" id="8" type="passenger">
		<route edges="14"/>
	</vehicle>
	<vehicle depart="0.1" departLane="0" departPos="28.0" departSpeed="0.0" id="9" type="passenger">
		<route edges="14"/>
	</vehicle>
	<vehicle depart="0.1" departLane="0" departPos="17.0" departSpeed="0.0" id="10" type="passenger">
		<route edges="14"/>
	</vehicle>
</routes>
