<!-- generated on Tue Feb  9 22:16:18 2021 by Eclipse SUMO netconvert Version 1.8.0
<configuration xmlns:xsi="http://www.w3.org/2001/XMLSchema-instance" xsi:noNamespaceSchemaLocation="http://sumo.dlr.de/xsd/netconvertConfiguration.xsd">

    <input>
        <node-files value="./converted_scenarios/scenario-factory/BEL_Zaventem-4_1_I-1-1/BEL_Zaventem-4_1_I-1-1.nod.xml"/>
        <edge-files value="./converted_scenarios/scenario-factory/BEL_Zaventem-4_1_I-1-1/BEL_Zaventem-4_1_I-1-1.edg.xml"/>
        <connection-files value="./converted_scenarios/scenario-factory/BEL_Zaventem-4_1_I-1-1/BEL_Zaventem-4_1_I-1-1.con.xml"/>
        <tllogic-files value="./converted_scenarios/scenario-factory/BEL_Zaventem-4_1_I-1-1/BEL_Zaventem-4_1_I-1-1.tll.xml"/>
        <type-files value="/home/zen/commonroad-interactive-benchmarks/install/commonroad-map-tool/crmapconverter/sumo_map/templates/DEU.typ.xml"/>
    </input>

    <output>
        <output-file value="./converted_scenarios/scenario-factory/BEL_Zaventem-4_1_I-1-1/BEL_Zaventem-4_1_I-1-1.net.xml"/>
    </output>

    <processing>
        <geometry.remove.keep-edges.explicit value="true"/>
        <geometry.avoid-overlap value="true"/>
        <offset.disable-normalization value="true"/>
    </processing>

    <junctions>
        <no-turnarounds value="true"/>
        <junctions.internal-link-detail value="20"/>
    </junctions>

    <report>
        <aggregate-warnings value="5"/>
    </report>

    <random_number>
        <seed value="1234"/>
    </random_number>

</configuration>
--><net xmlns:xsi="http://www.w3.org/2001/XMLSchema-instance" version="1.6" junctionCornerDetail="5" junctionLinkDetail="20" limitTurnSpeed="5.50" xsi:noNamespaceSchemaLocation="http://sumo.dlr.de/xsd/net_file.xsd">

    <location netOffset="0.00,0.00" convBoundary="-360.04,-279.44,-256.40,-129.53" origBoundary="-360.04,-279.96,-256.40,-129.53" projParameter="!"/>

    <type id="highway.bridleway" priority="1" speed="2.78" allow="pedestrian" oneway="1" width="2.00"/>
    <type id="highway.bus_guideway" priority="1" speed="27.78" allow="bus" oneway="1"/>
    <type id="highway.cycleway" priority="1" speed="8.33" allow="bicycle" oneway="0" width="1.00"/>
    <type id="highway.footway" priority="1" speed="2.78" allow="pedestrian" oneway="1" width="2.00"/>
    <type id="highway.ford" priority="1" speed="2.78" allow="army" oneway="0"/>
    <type id="highway.living_street" priority="2" speed="2.78" disallow="tram rail_urban rail rail_electric rail_fast ship" oneway="0"/>
    <type id="highway.motorway" priority="14" speed="39.44" allow="private emergency authority army vip passenger hov taxi bus coach delivery truck trailer motorcycle evehicle custom1 custom2" oneway="1"/>
    <type id="highway.motorway_link" priority="9" speed="22.22" allow="private emergency authority army vip passenger hov taxi bus coach delivery truck trailer motorcycle evehicle custom1 custom2" oneway="1"/>
    <type id="highway.path" priority="1" speed="2.78" allow="pedestrian bicycle" oneway="0" width="2.00"/>
    <type id="highway.pedestrian" priority="1" speed="2.78" allow="pedestrian" oneway="1" width="2.00"/>
    <type id="highway.primary" priority="12" speed="27.78" disallow="pedestrian tram rail_urban rail rail_electric rail_fast ship" oneway="0"/>
    <type id="highway.primary_link" priority="7" speed="22.22" disallow="pedestrian tram rail_urban rail rail_electric rail_fast ship" oneway="0"/>
    <type id="highway.raceway" priority="15" speed="83.33" allow="vip" oneway="0"/>
    <type id="highway.residential" priority="3" speed="13.89" disallow="pedestrian tram rail_urban rail rail_electric rail_fast ship" oneway="0"/>
    <type id="highway.secondary" priority="11" speed="27.78" disallow="pedestrian tram rail_urban rail rail_electric rail_fast ship" oneway="0"/>
    <type id="highway.secondary_link" priority="6" speed="22.22" disallow="pedestrian tram rail_urban rail rail_electric rail_fast ship" oneway="0"/>
    <type id="highway.service" priority="1" speed="5.56" allow="pedestrian delivery bicycle" oneway="0"/>
    <type id="highway.stairs" priority="1" speed="1.39" allow="pedestrian" oneway="1" width="2.00"/>
    <type id="highway.step" priority="1" speed="1.39" allow="pedestrian" oneway="1" width="2.00"/>
    <type id="highway.steps" priority="1" speed="1.39" allow="pedestrian" oneway="1" width="2.00"/>
    <type id="highway.tertiary" priority="10" speed="22.22" disallow="pedestrian tram rail_urban rail rail_electric rail_fast ship" oneway="0"/>
    <type id="highway.tertiary_link" priority="5" speed="22.22" disallow="pedestrian tram rail_urban rail rail_electric rail_fast ship" oneway="0"/>
    <type id="highway.track" priority="1" speed="5.56" allow="pedestrian motorcycle moped bicycle" oneway="0"/>
    <type id="highway.trunk" priority="13" speed="27.78" disallow="pedestrian bicycle tram rail_urban rail rail_electric rail_fast ship" oneway="0"/>
    <type id="highway.trunk_link" priority="8" speed="22.22" disallow="pedestrian bicycle tram rail_urban rail rail_electric rail_fast ship" oneway="0"/>
    <type id="highway.unclassified" priority="4" speed="13.89" disallow="pedestrian tram rail_urban rail rail_electric rail_fast ship" oneway="0"/>
    <type id="highway.unsurfaced" priority="1" speed="8.33" disallow="tram rail_urban rail rail_electric rail_fast ship" oneway="0"/>
    <type id="railway.highspeed" priority="21" speed="69.44" allow="rail_fast" oneway="1"/>
    <type id="railway.light_rail" priority="19" speed="27.78" allow="rail_urban" oneway="1"/>
    <type id="railway.preserved" priority="16" speed="27.78" allow="rail" oneway="1"/>
    <type id="railway.rail" priority="20" speed="44.44" allow="rail" oneway="1"/>
    <type id="railway.subway" priority="18" speed="27.78" allow="rail_urban" oneway="1"/>
    <type id="railway.tram" priority="17" speed="13.89" allow="tram" oneway="1"/>

    <edge id=":17_0" function="internal">
        <lane id=":17_0_0" index="0" disallow="pedestrian tram rail_urban rail rail_electric rail_fast ship" speed="36.11" length="2.97" width="3.50" shape="-270.02,-239.74 -270.86,-236.89"/>
    </edge>
    <edge id=":21_0" function="internal">
        <lane id=":21_0_0" index="0" disallow="pedestrian tram rail_urban rail rail_electric rail_fast ship" speed="36.11" length="0.25" width="3.50" shape="-260.09,-266.01 -260.17,-265.77"/>
    </edge>
    <edge id=":25_0" function="internal">
        <lane id=":25_0_0" index="0" disallow="pedestrian tram rail_urban rail rail_electric rail_fast ship" speed="36.11" length="28.90" width="3.50" shape="-273.14,-228.64 -276.89,-214.06 -280.31,-200.64"/>
    </edge>
    <edge id=":25_1" function="internal">
        <lane id=":25_1_0" index="0" disallow="pedestrian tram rail_urban rail rail_electric rail_fast ship" speed="10.57" length="23.64" width="3.40" shape="-273.14,-228.64 -274.18,-224.85 -275.39,-221.02 -276.34,-218.52 -277.50,-216.10 -278.21,-214.97 -279.05,-213.93 -280.13,-213.14 -286.42,-213.83"/>
    </edge>
    <edge id=":25_2" function="internal">
        <lane id=":25_2_0" index="0" disallow="pedestrian tram rail_urban rail rail_electric rail_fast ship" speed="8.96" length="16.66" width="3.50" shape="-283.21,-216.80 -280.52,-216.40 -280.21,-216.62 -279.74,-217.23 -279.32,-218.07 -278.62,-220.16 -278.10,-222.40 -277.39,-225.94 -276.51,-229.57"/>
    </edge>
    <edge id=":25_3" function="internal">
        <lane id=":25_3_0" index="0" disallow="pedestrian tram rail_urban rail rail_electric rail_fast ship" speed="9.17" length="19.94" width="3.50" shape="-283.21,-216.80 -278.91,-215.34 -277.81,-213.63 -277.57,-211.84 -277.69,-210.35 -277.93,-208.99 -278.56,-206.49 -279.66,-202.90 -280.31,-200.64"/>
    </edge>
    <edge id=":25_4" function="internal">
        <lane id=":25_4_0" index="0" disallow="pedestrian tram rail_urban rail rail_electric rail_fast ship" speed="8.74" length="17.97" width="3.40" shape="-283.71,-201.50 -282.96,-203.56 -281.58,-206.48 -280.68,-208.44 -280.30,-209.45 -280.03,-210.49 -279.98,-211.56 -280.46,-212.50 -286.42,-213.83"/>
    </edge>
    <edge id=":25_5" function="internal">
        <lane id=":25_5_0" index="0" disallow="pedestrian tram rail_urban rail rail_electric rail_fast ship" speed="36.11" length="28.98" width="3.50" shape="-283.71,-201.50 -280.28,-214.93 -276.51,-229.57"/>
    </edge>
    <edge id=":26_0" function="internal">
        <lane id=":26_0_0" index="0" disallow="pedestrian tram rail_urban rail rail_electric rail_fast ship" speed="10.04" length="20.85" width="3.50" shape="-286.35,-213.81 -287.01,-213.88 -287.71,-213.73 -288.42,-213.39 -289.12,-212.89 -289.78,-212.27 -290.41,-211.57 -291.60,-209.91 -292.63,-208.12 -294.01,-205.24 -295.58,-201.20 -296.93,-197.08"/>
    </edge>
    <edge id=":26_1" function="internal">
        <lane id=":26_1_0" index="0" disallow="pedestrian tram rail_urban rail rail_electric rail_fast ship" speed="36.11" length="26.98" width="3.50" shape="-286.35,-213.81 -293.85,-215.36 -312.64,-219.86"/>
    </edge>
    <edge id=":26_2" function="internal">
        <lane id=":26_2_0" index="0" disallow="pedestrian tram rail_urban rail rail_electric rail_fast ship" speed="36.11" length="26.65" width="3.49" shape="-311.79,-223.25 -293.13,-218.78 -285.82,-217.26"/>
    </edge>
    <edge id=":26_3" function="internal">
        <lane id=":26_3_0" index="0" disallow="pedestrian tram rail_urban rail rail_electric rail_fast ship" speed="12.09" length="34.85" width="3.50" shape="-311.79,-223.25 -308.10,-222.13 -305.66,-221.11 -303.32,-219.83 -301.15,-218.26 -300.11,-217.32 -299.17,-216.30 -298.32,-215.20 -297.58,-214.02 -296.94,-212.77 -296.43,-211.48 -296.04,-210.15 -295.76,-208.78 -295.52,-206.11 -295.62,-203.45 -296.00,-200.83 -296.93,-197.08"/>
    </edge>
    <edge id=":26_4" function="internal">
        <lane id=":26_4_0" index="0" disallow="pedestrian tram rail_urban rail rail_electric rail_fast ship" speed="11.08" length="29.08" width="3.50" shape="-300.28,-198.09 -299.47,-201.34 -299.15,-203.56 -299.06,-205.80 -299.27,-208.02 -299.49,-209.12 -299.81,-210.19 -300.22,-211.23 -300.73,-212.23 -301.33,-213.18 -302.01,-214.06 -302.77,-214.88 -303.59,-215.64 -305.41,-216.95 -307.37,-218.02 -309.44,-218.88 -312.64,-219.86"/>
    </edge>
    <edge id=":26_5" function="internal">
        <lane id=":26_5_0" index="0" disallow="pedestrian tram rail_urban rail rail_electric rail_fast ship" speed="11.14" length="25.80" width="3.49" shape="-300.28,-198.09 -298.73,-202.75 -296.89,-207.31 -295.21,-210.59 -293.90,-212.67 -292.35,-214.58 -291.46,-215.43 -290.49,-216.17 -289.42,-216.78 -288.26,-217.18 -287.04,-217.35 -285.82,-217.26"/>
    </edge>
    <edge id=":27_0" function="internal">
        <lane id=":27_0_0" index="0" disallow="pedestrian tram rail_urban rail rail_electric rail_fast ship" speed="36.11" length="8.00" width="3.50" shape="-271.23,-249.74 -269.48,-257.55"/>
        <lane id=":27_0_1" index="1" disallow="pedestrian tram rail_urban rail rail_electric rail_fast ship" speed="36.11" length="7.99" width="3.50" shape="-270.18,-249.45 -267.20,-256.86"/>
    </edge>

    <edge id="20995" from="25" to="27" priority="3" type="highway.residential" spreadType="center" length="20.85" shape="-281.12,-215.00 -268.64,-253.13">
        <lane id="20995_0" index="0" disallow="pedestrian tram rail_urban rail rail_electric rail_fast ship" speed="36.11" length="20.85" width="3.50" customShape="1" shape="-276.51,-229.57 -275.34,-233.81 -270.96,-249.67"/>
    </edge>
    <edge id="20996" from="17" to="25" priority="3" type="highway.residential" spreadType="center" length="8.56" shape="-270.46,-238.32 -277.80,-213.91">
        <lane id="20996_0" index="0" disallow="pedestrian tram rail_urban rail rail_electric rail_fast ship" speed="36.11" length="8.56" width="3.50" customShape="1" shape="-270.86,-236.89 -271.97,-232.87 -273.14,-228.64"/>
    </edge>
    <edge id="20998" from="15" to="25" priority="3" type="highway.residential" spreadType="center" length="70.00" shape="-300.86,-133.67 -281.12,-214.98">
        <lane id="20998_0" index="0" disallow="pedestrian tram rail_urban rail rail_electric rail_fast ship" speed="36.11" length="70.00" width="3.50" customShape="1" shape="-300.86,-133.67 -283.70,-201.53"/>
    </edge>
    <edge id="20999" from="25" to="10" priority="3" type="highway.residential" spreadType="center" length="70.00" shape="-277.72,-214.15 -297.47,-132.78">
        <lane id="20999_0" index="0" disallow="pedestrian tram rail_urban rail rail_electric rail_fast ship" speed="36.11" length="70.00" width="3.50" customShape="1" shape="-280.31,-200.64 -297.47,-132.78"/>
    </edge>
    <edge id="21082" from="26" to="3" priority="3" type="highway.residential" spreadType="center" length="70.00" shape="-297.25,-211.22 -315.19,-129.53">
        <lane id="21082_0" index="0" disallow="pedestrian tram rail_urban rail rail_electric rail_fast ship" speed="36.11" length="70.00" width="3.50" customShape="1" shape="-296.93,-197.08 -304.06,-173.45 -307.94,-159.37 -312.47,-141.30 -315.19,-129.53"/>
    </edge>
    <edge id="21083" from="18" to="26" priority="3" type="highway.residential" spreadType="center" length="70.01" shape="-318.55,-130.54 -300.67,-211.97">
        <lane id="21083_0" index="0" disallow="pedestrian tram rail_urban rail rail_electric rail_fast ship" speed="36.11" length="70.01" width="3.50" customShape="1" shape="-318.55,-130.54 -315.86,-142.15 -311.32,-160.28 -307.43,-174.41 -300.28,-198.10"/>
    </edge>
    <edge id="21357" from="26" to="5" priority="3" type="highway.residential" spreadType="center" length="48.94" shape="-299.52,-209.90 -360.04,-232.02">
        <lane id="21357_0" index="0" disallow="pedestrian tram rail_urban rail rail_electric rail_fast ship" speed="36.11" length="48.94" width="3.50" customShape="1" shape="-312.64,-219.86 -340.54,-226.83 -360.04,-232.02"/>
    </edge>
    <edge id="21358" from="19" to="26" priority="3" type="highway.residential" spreadType="center" length="48.89" shape="-359.13,-235.40 -298.32,-213.18">
        <lane id="21358_0" index="0" disallow="pedestrian tram rail_urban rail rail_electric rail_fast ship" speed="36.11" length="48.89" width="3.50" customShape="1" shape="-359.13,-235.40 -339.66,-230.22 -311.78,-223.25"/>
    </edge>
    <edge id="21518" from="27" to="20" priority="3" type="highway.residential" spreadType="center" length="23.29">
        <lane id="21518_0" index="0" disallow="pedestrian tram rail_urban rail rail_electric rail_fast ship" speed="36.11" length="23.30" width="3.50" customShape="1" shape="-270.00,-257.71 -264.94,-273.96 -263.08,-279.96"/>
        <lane id="21518_1" index="1" disallow="pedestrian tram rail_urban rail rail_electric rail_fast ship" speed="36.11" length="23.29" width="3.50" customShape="1" shape="-266.66,-256.69 -261.60,-272.92 -259.73,-278.92"/>
    </edge>
    <edge id="21520" from="22" to="21" priority="3" type="highway.residential" spreadType="center" length="12.42">
        <lane id="21520_0" index="0" disallow="pedestrian tram rail_urban rail rail_electric rail_fast ship" speed="36.11" length="12.42" width="3.50" customShape="1" shape="-256.40,-277.87 -258.26,-271.88 -260.09,-266.01"/>
    </edge>
    <edge id="21573" from="25" to="26" priority="3" type="highway.residential" spreadType="center" length="0.16" shape="-279.18,-212.85 -298.86,-209.86">
        <lane id="21573_0" index="0" disallow="pedestrian tram rail_urban rail rail_electric rail_fast ship" speed="36.11" length="0.16" width="3.40" customShape="1" shape="-286.42,-213.83 -286.58,-213.86"/>
    </edge>
    <edge id="21577" from="26" to="25" priority="3" type="highway.residential" spreadType="center" length="0.20" shape="-299.38,-213.25 -279.70,-216.26">
        <lane id="21577_0" index="0" disallow="pedestrian tram rail_urban rail rail_electric rail_fast ship" speed="36.11" length="0.20" width="3.49" customShape="1" shape="-283.41,-216.84 -283.21,-216.80"/>
    </edge>
    <edge id="22922" from="21" to="17" priority="3" type="highway.residential" spreadType="center" length="27.84">
        <lane id="22922_0" index="0" disallow="pedestrian tram rail_urban rail rail_electric rail_fast ship" speed="36.11" length="27.84" width="3.50" customShape="1" shape="-260.17,-265.77 -262.20,-259.92 -268.10,-245.28 -270.02,-239.74"/>
    </edge>

    <junction id="10" type="dead_end" x="-297.47" y="-132.78" incLanes="20999_0" intLanes="" shape="-295.77,-132.35 -299.17,-133.21" rightOfWay="edgePriority"/>
    <junction id="15" type="dead_end" x="-300.86" y="-133.67" incLanes="" intLanes="" shape="-299.16,-133.24 -302.55,-134.10" rightOfWay="edgePriority"/>
    <junction id="17" type="priority" x="-270.46" y="-238.32" incLanes="22922_0" intLanes=":17_0_0" shape="-268.34,-239.23 -271.69,-240.25 -272.55,-237.36 -269.17,-236.42" rightOfWay="edgePriority">
        <request index="0" response="0" foes="0" cont="0"/>
    </junction>
    <junction id="18" type="dead_end" x="-318.55" y="-130.54" incLanes="" intLanes="" shape="-316.85,-130.14 -320.26,-130.93" rightOfWay="edgePriority"/>
    <junction id="19" type="dead_end" x="-359.13" y="-235.40" incLanes="" intLanes="" shape="-359.58,-233.71 -358.68,-237.09" rightOfWay="edgePriority"/>
    <junction id="20" type="dead_end" x="-261.41" y="-279.44" incLanes="21518_0 21518_1" intLanes="" shape="-264.75,-280.48 -258.06,-278.40" rightOfWay="edgePriority"/>
    <junction id="21" type="priority" x="-260.13" y="-265.89" incLanes="21520_0" intLanes=":21_0_0" shape="-258.42,-265.49 -261.76,-266.53 -261.82,-266.35 -258.51,-265.20" rightOfWay="edgePriority">
        <request index="0" response="0" foes="0" cont="0"/>
    </junction>
    <junction id="22" type="dead_end" x="-256.40" y="-277.87" incLanes="" intLanes="" shape="-258.07,-278.39 -254.73,-277.35" rightOfWay="edgePriority"/>
    <junction id="25" type="priority" x="-279.43" y="-214.53" incLanes="20996_0 21577_0 20998_0" intLanes=":25_0_0 :25_1_0 :25_2_0 :25_3_0 :25_4_0 :25_5_0" shape="-271.45,-228.17 -278.20,-230.04 -285.53,-218.98 -286.92,-212.19 -285.40,-201.93 -278.61,-200.21">
        <request index="0" response="000000" foes="001000" cont="0"/>
        <request index="1" response="110000" foes="111000" cont="0"/>
        <request index="2" response="100000" foes="100000" cont="0"/>
        <request index="3" response="100011" foes="100011" cont="0"/>
        <request index="4" response="000000" foes="000010" cont="0"/>
        <request index="5" response="000000" foes="001110" cont="0"/>
    </junction>
    <junction id="26" type="priority" x="-298.97" y="-211.56" incLanes="21573_0 21358_0 21083_0" intLanes=":26_0_0 :26_1_0 :26_2_0 :26_3_0 :26_4_0 :26_5_0" shape="-286.71,-212.15 -285.51,-218.98 -311.37,-224.95 -313.07,-218.16 -308.36,-216.52 -304.80,-214.23 -302.38,-211.29 -301.10,-207.71 -300.96,-203.48 -301.95,-198.60 -295.25,-196.58 -293.65,-201.54 -292.12,-205.56 -290.66,-208.63 -289.27,-210.75 -287.95,-211.92">
        <request index="0" response="000000" foes="001000" cont="0"/>
        <request index="1" response="000000" foes="111000" cont="0"/>
        <request index="2" response="000000" foes="100000" cont="0"/>
        <request index="3" response="000011" foes="100011" cont="0"/>
        <request index="4" response="000010" foes="000010" cont="0"/>
        <request index="5" response="001110" foes="001110" cont="0"/>
    </junction>
    <junction id="27" type="priority" x="-268.64" y="-253.13" incLanes="20995_0" intLanes=":27_0_0 :27_0_1" shape="-264.98,-256.18 -271.68,-258.23 -272.22,-255.27 -272.21,-254.19 -272.18,-253.11 -272.28,-251.83 -272.64,-250.13 -269.27,-249.20 -267.95,-251.89 -267.18,-252.70 -266.39,-253.51 -265.65,-254.58">
        <request index="0" response="00" foes="00" cont="0"/>
        <request index="1" response="00" foes="00" cont="0"/>
    </junction>
    <junction id="3" type="dead_end" x="-315.19" y="-129.53" incLanes="21082_0" intLanes="" shape="-313.49,-129.14 -316.90,-129.93" rightOfWay="edgePriority"/>
    <junction id="5" type="dead_end" x="-360.04" y="-232.02" incLanes="21357_0" intLanes="" shape="-360.49,-230.33 -359.59,-233.71" rightOfWay="edgePriority"/>

    <connection from="20995" to="21518" fromLane="0" toLane="0" contPos="-4.00" shape="-273.83,-239.30 -272.13,-245.69 -268.58,-261.59 -266.81,-267.97" via=":27_0_0" dir="s" state="M"/>
    <connection from="20995" to="21518" fromLane="0" toLane="1" contPos="-4.00" shape="-273.83,-239.30 -273.51,-240.35 -271.41,-246.39 -265.51,-261.05 -263.46,-266.96" via=":27_0_1" dir="s" state="M"/>
    <connection from="20996" to="20999" fromLane="0" toLane="0" contPos="-4.00" shape="-273.48,-227.43 -276.89,-214.06 -280.31,-200.64" via=":25_0_0" dir="s" state="M"/>
    <connection from="20996" to="21573" fromLane="0" toLane="0" contPos="-4.00" shape="-273.48,-227.43 -274.18,-224.85 -275.39,-221.02 -276.34,-218.52 -277.50,-216.10 -278.21,-214.97 -279.05,-213.93 -280.13,-213.14 -281.43,-212.94" via=":25_1_0" dir="l" state="m"/>
    <connection from="20998" to="21573" fromLane="0" toLane="0" contPos="-4.00" shape="-283.70,-201.53 -282.96,-203.56 -281.58,-206.48 -280.68,-208.44 -280.30,-209.45 -280.03,-210.49 -279.98,-211.56 -280.46,-212.50 -281.43,-212.94" via=":25_4_0" dir="r" state="M"/>
    <connection from="20998" to="20995" fromLane="0" toLane="0" contPos="-4.00" shape="-283.70,-201.53 -280.28,-214.93 -276.87,-228.29" via=":25_5_0" dir="s" state="M"/>
    <connection from="21083" to="21357" fromLane="0" toLane="0" contPos="-4.00" shape="-300.28,-198.09 -299.47,-201.34 -299.15,-203.56 -299.06,-205.80 -299.27,-208.02 -299.49,-209.12 -299.81,-210.19 -300.22,-211.23 -300.73,-212.23 -301.33,-213.18 -302.01,-214.06 -302.77,-214.88 -303.59,-215.64 -305.41,-216.95 -307.37,-218.02 -309.44,-218.88 -312.64,-219.86" via=":26_4_0" dir="r" state="m"/>
    <connection from="21083" to="21577" fromLane="0" toLane="0" contPos="-4.00" shape="-300.28,-198.09 -298.73,-202.75 -296.89,-207.31 -295.21,-210.59 -293.90,-212.67 -292.35,-214.58 -291.46,-215.43 -290.49,-216.17 -289.42,-216.78 -288.26,-217.18 -287.04,-217.35 -285.82,-217.26" via=":26_5_0" dir="l" state="m"/>
    <connection from="21358" to="21577" fromLane="0" toLane="0" contPos="-4.00" shape="-311.78,-223.25 -293.13,-218.78 -285.82,-217.26" via=":26_2_0" dir="s" state="M"/>
    <connection from="21358" to="21082" fromLane="0" toLane="0" contPos="-4.00" shape="-311.78,-223.25 -308.10,-222.13 -305.66,-221.11 -303.32,-219.83 -301.15,-218.26 -300.11,-217.32 -299.17,-216.30 -298.32,-215.20 -297.58,-214.02 -296.94,-212.77 -296.43,-211.48 -296.04,-210.15 -295.76,-208.78 -295.52,-206.11 -295.62,-203.45 -296.00,-200.83 -296.93,-197.08" via=":26_3_0" dir="l" state="m"/>
    <connection from="21520" to="22922" fromLane="0" toLane="0" contPos="-4.00" via=":21_0_0" dir="s" state="M"/>
    <connection from="21573" to="21082" fromLane="0" toLane="0" contPos="-4.00" shape="-286.35,-213.81 -287.01,-213.88 -287.71,-213.73 -288.42,-213.39 -289.12,-212.89 -289.78,-212.27 -290.41,-211.57 -291.60,-209.91 -292.63,-208.12 -294.01,-205.24 -295.58,-201.20 -296.93,-197.08" via=":26_0_0" dir="r" state="M"/>
    <connection from="21573" to="21357" fromLane="0" toLane="0" contPos="-4.00" shape="-286.35,-213.81 -293.85,-215.36 -312.64,-219.86" via=":26_1_0" dir="s" state="M"/>
    <connection from="21577" to="20995" fromLane="0" toLane="0" contPos="-4.00" shape="-280.82,-216.34 -280.52,-216.40 -280.21,-216.62 -279.74,-217.23 -279.32,-218.07 -278.62,-220.16 -278.10,-222.40 -277.39,-225.94 -276.87,-228.29" via=":25_2_0" dir="r" state="m"/>
    <connection from="21577" to="20999" fromLane="0" toLane="0" contPos="-4.00" shape="-280.82,-216.34 -278.91,-215.34 -277.81,-213.63 -277.57,-211.84 -277.69,-210.35 -277.93,-208.99 -278.56,-206.49 -279.66,-202.90 -280.31,-200.64" via=":25_3_0" dir="l" state="m"/>
    <connection from="22922" to="20996" fromLane="0" toLane="0" contPos="-4.00" via=":17_0_0" dir="s" state="M"/>

    <connection from=":17_0" to="20996" fromLane="0" toLane="0" dir="s" state="M"/>
    <connection from=":21_0" to="22922" fromLane="0" toLane="0" dir="s" state="M"/>
    <connection from=":25_0" to="20999" fromLane="0" toLane="0" dir="s" state="M"/>
    <connection from=":25_1" to="21573" fromLane="0" toLane="0" dir="l" state="M"/>
    <connection from=":25_2" to="20995" fromLane="0" toLane="0" dir="r" state="M"/>
    <connection from=":25_3" to="20999" fromLane="0" toLane="0" dir="l" state="M"/>
    <connection from=":25_4" to="21573" fromLane="0" toLane="0" dir="r" state="M"/>
    <connection from=":25_5" to="20995" fromLane="0" toLane="0" dir="s" state="M"/>
    <connection from=":26_0" to="21082" fromLane="0" toLane="0" dir="r" state="M"/>
    <connection from=":26_1" to="21357" fromLane="0" toLane="0" dir="s" state="M"/>
    <connection from=":26_2" to="21577" fromLane="0" toLane="0" dir="s" state="M"/>
    <connection from=":26_3" to="21082" fromLane="0" toLane="0" dir="l" state="M"/>
    <connection from=":26_4" to="21357" fromLane="0" toLane="0" dir="r" state="M"/>
    <connection from=":26_5" to="21577" fromLane="0" toLane="0" dir="l" state="M"/>
    <connection from=":27_0" to="21518" fromLane="0" toLane="0" dir="s" state="M"/>
    <connection from=":27_0" to="21518" fromLane="1" toLane="1" dir="s" state="M"/>

</net>