<routes>
	<vehicle depart="0.1" departLane="0" departPos="71.74119424119823" departSpeed="3.2528864" id="1" type="passenger">
		<route edges="50201 50213 50197"/>
	</vehicle>
	<vehicle depart="0.1" departLane="0" departPos="100.25458032158389" departSpeed="1.7177967" id="2" type="passenger">
		<route edges="50195 50211 50199"/>
	</vehicle>
	<vehicle depart="0.1" departLane="0" departPos="112.81313135847205" departSpeed="3.7315675" id="4" type="passenger">
		<route edges="50205 50207 50197"/>
	</vehicle>
	<vehicle depart="0.1" departLane="0" departPos="120.81327702570756" departSpeed="5.2469701" id="5" type="passenger">
		<route edges="50205 50217 50199"/>
	</vehicle>
	<vehicle depart="0.1" departLane="0" departPos="71.74119424119823" departSpeed="0.39207882" id="7" type="passenger">
		<route edges="50201 50213 50197"/>
	</vehicle>
</routes>
