<routes>
	<vehicle depart="0.1" departLane="0" departPos="56.570027182597045" departSpeed="1.1253865" id="310" type="bicycle">
		<route edges="6267 5725"/>
	</vehicle>
	<vehicle depart="0.1" departLane="0" departPos="15.957641780280822" departSpeed="1.5516996" id="315" type="passenger">
		<route edges=":77_0 5725 5728"/>
	</vehicle>
	<vehicle depart="0.1" departLane="0" departPos="51.37861504476614" departSpeed="1.1053714" id="324" type="passenger">
		<route edges="6267 5725"/>
	</vehicle>
	<vehicle depart="0.1" departLane="0" departPos="26.380123283624005" departSpeed="0.53043536" id="326" type="passenger">
		<route edges=":73_2 5724 5721"/>
	</vehicle>
	<vehicle depart="0.1" departLane="0" departPos="10.270605987550695" departSpeed="1.3824626" id="337" type="passenger">
		<route edges="5727 5724"/>
	</vehicle>
	<vehicle depart="0.1" departLane="0" departPos="68.21449236701908" departSpeed="0.32689872" id="356" type="passenger">
		<route edges="5796 5728"/>
	</vehicle>
	<vehicle depart="0.1" departLane="0" departPos="71.24978966024503" departSpeed="1.1755867" id="34" type="motorcycle">
		<route edges="6267 5721 6198"/>
	</vehicle>
	<vehicle depart="0.1" departLane="0" departPos="56.30351350429661" departSpeed="1.3968049" id="325" type="motorcycle">
		<route edges="6267 5725"/>
	</vehicle>
	<vehicle depart="0.1" departLane="0" departPos="7.546389378151528" departSpeed="0.13341711" id="355" type="truck">
		<route edges=":73_0 5728"/>
	</vehicle>
</routes>
