<routes>
	<vehicle depart="0.1" departLane="0" departPos="24.853211357276017" departSpeed="2.9388231" id="310" type="passenger">
		<route edges=":142_2 51754 51710"/>
	</vehicle>
	<vehicle depart="0.1" departLane="0" departPos="29.051325760647586" departSpeed="5.2926083" id="342" type="passenger">
		<route edges=":146_2 52070 51758"/>
	</vehicle>
	<vehicle depart="0.1" departLane="0" departPos="5.404778737498901" departSpeed="1.6192771" id="350" type="passenger">
		<route edges=":146_2 52070"/>
	</vehicle>
</routes>
