<!-- generated on Tue Feb  9 22:21:26 2021 by Eclipse SUMO netconvert Version 1.8.0
<configuration xmlns:xsi="http://www.w3.org/2001/XMLSchema-instance" xsi:noNamespaceSchemaLocation="http://sumo.dlr.de/xsd/netconvertConfiguration.xsd">

    <input>
        <node-files value="./converted_scenarios/scenario-factory/DEU_Ibbenbueren-12_4_I-1-1/DEU_Ibbenbueren-12_4_I-1-1.nod.xml"/>
        <edge-files value="./converted_scenarios/scenario-factory/DEU_Ibbenbueren-12_4_I-1-1/DEU_Ibbenbueren-12_4_I-1-1.edg.xml"/>
        <connection-files value="./converted_scenarios/scenario-factory/DEU_Ibbenbueren-12_4_I-1-1/DEU_Ibbenbueren-12_4_I-1-1.con.xml"/>
        <tllogic-files value="./converted_scenarios/scenario-factory/DEU_Ibbenbueren-12_4_I-1-1/DEU_Ibbenbueren-12_4_I-1-1.tll.xml"/>
        <type-files value="/home/zen/commonroad-interactive-benchmarks/install/commonroad-map-tool/crmapconverter/sumo_map/templates/DEU.typ.xml"/>
    </input>

    <output>
        <output-file value="./converted_scenarios/scenario-factory/DEU_Ibbenbueren-12_4_I-1-1/DEU_Ibbenbueren-12_4_I-1-1.net.xml"/>
    </output>

    <processing>
        <geometry.remove.keep-edges.explicit value="true"/>
        <geometry.avoid-overlap value="true"/>
        <offset.disable-normalization value="true"/>
    </processing>

    <junctions>
        <no-turnarounds value="true"/>
        <junctions.internal-link-detail value="20"/>
    </junctions>

    <report>
        <aggregate-warnings value="5"/>
    </report>

    <random_number>
        <seed value="1234"/>
    </random_number>

</configuration>
--><net xmlns:xsi="http://www.w3.org/2001/XMLSchema-instance" version="1.6" junctionCornerDetail="5" junctionLinkDetail="20" limitTurnSpeed="5.50" xsi:noNamespaceSchemaLocation="http://sumo.dlr.de/xsd/net_file.xsd">

    <location netOffset="0.00,0.00" convBoundary="-613.32,-598.61,-315.75,-427.39" origBoundary="-613.32,-598.61,-315.75,-427.39" projParameter="!"/>

    <type id="highway.bridleway" priority="1" speed="2.78" allow="pedestrian" oneway="1" width="2.00"/>
    <type id="highway.bus_guideway" priority="1" speed="27.78" allow="bus" oneway="1"/>
    <type id="highway.cycleway" priority="1" speed="8.33" allow="bicycle" oneway="0" width="1.00"/>
    <type id="highway.footway" priority="1" speed="2.78" allow="pedestrian" oneway="1" width="2.00"/>
    <type id="highway.ford" priority="1" speed="2.78" allow="army" oneway="0"/>
    <type id="highway.living_street" priority="2" speed="2.78" disallow="tram rail_urban rail rail_electric rail_fast ship" oneway="0"/>
    <type id="highway.motorway" priority="14" speed="39.44" allow="private emergency authority army vip passenger hov taxi bus coach delivery truck trailer motorcycle evehicle custom1 custom2" oneway="1"/>
    <type id="highway.motorway_link" priority="9" speed="22.22" allow="private emergency authority army vip passenger hov taxi bus coach delivery truck trailer motorcycle evehicle custom1 custom2" oneway="1"/>
    <type id="highway.path" priority="1" speed="2.78" allow="pedestrian bicycle" oneway="0" width="2.00"/>
    <type id="highway.pedestrian" priority="1" speed="2.78" allow="pedestrian" oneway="1" width="2.00"/>
    <type id="highway.primary" priority="12" speed="27.78" disallow="pedestrian tram rail_urban rail rail_electric rail_fast ship" oneway="0"/>
    <type id="highway.primary_link" priority="7" speed="22.22" disallow="pedestrian tram rail_urban rail rail_electric rail_fast ship" oneway="0"/>
    <type id="highway.raceway" priority="15" speed="83.33" allow="vip" oneway="0"/>
    <type id="highway.residential" priority="3" speed="13.89" disallow="pedestrian tram rail_urban rail rail_electric rail_fast ship" oneway="0"/>
    <type id="highway.secondary" priority="11" speed="27.78" disallow="pedestrian tram rail_urban rail rail_electric rail_fast ship" oneway="0"/>
    <type id="highway.secondary_link" priority="6" speed="22.22" disallow="pedestrian tram rail_urban rail rail_electric rail_fast ship" oneway="0"/>
    <type id="highway.service" priority="1" speed="5.56" allow="pedestrian delivery bicycle" oneway="0"/>
    <type id="highway.stairs" priority="1" speed="1.39" allow="pedestrian" oneway="1" width="2.00"/>
    <type id="highway.step" priority="1" speed="1.39" allow="pedestrian" oneway="1" width="2.00"/>
    <type id="highway.steps" priority="1" speed="1.39" allow="pedestrian" oneway="1" width="2.00"/>
    <type id="highway.tertiary" priority="10" speed="22.22" disallow="pedestrian tram rail_urban rail rail_electric rail_fast ship" oneway="0"/>
    <type id="highway.tertiary_link" priority="5" speed="22.22" disallow="pedestrian tram rail_urban rail rail_electric rail_fast ship" oneway="0"/>
    <type id="highway.track" priority="1" speed="5.56" allow="pedestrian motorcycle moped bicycle" oneway="0"/>
    <type id="highway.trunk" priority="13" speed="27.78" disallow="pedestrian bicycle tram rail_urban rail rail_electric rail_fast ship" oneway="0"/>
    <type id="highway.trunk_link" priority="8" speed="22.22" disallow="pedestrian bicycle tram rail_urban rail rail_electric rail_fast ship" oneway="0"/>
    <type id="highway.unclassified" priority="4" speed="13.89" disallow="pedestrian tram rail_urban rail rail_electric rail_fast ship" oneway="0"/>
    <type id="highway.unsurfaced" priority="1" speed="8.33" disallow="tram rail_urban rail rail_electric rail_fast ship" oneway="0"/>
    <type id="railway.highspeed" priority="21" speed="69.44" allow="rail_fast" oneway="1"/>
    <type id="railway.light_rail" priority="19" speed="27.78" allow="rail_urban" oneway="1"/>
    <type id="railway.preserved" priority="16" speed="27.78" allow="rail" oneway="1"/>
    <type id="railway.rail" priority="20" speed="44.44" allow="rail" oneway="1"/>
    <type id="railway.subway" priority="18" speed="27.78" allow="rail_urban" oneway="1"/>
    <type id="railway.tram" priority="17" speed="13.89" allow="tram" oneway="1"/>

    <edge id=":33_0" function="internal">
        <lane id=":33_0_0" index="0" disallow="pedestrian tram rail_urban rail rail_electric rail_fast ship" speed="36.11" length="3.10" width="3.50" shape="-429.23,-578.76 -432.25,-579.46"/>
    </edge>
    <edge id=":52_0" function="internal">
        <lane id=":52_0_0" index="0" disallow="pedestrian tram rail_urban rail rail_electric rail_fast ship" speed="36.11" length="3.03" width="3.50" shape="-431.44,-582.87 -428.49,-582.18"/>
    </edge>
    <edge id=":55_0" function="internal">
        <lane id=":55_0_0" index="0" disallow="pedestrian tram rail_urban rail rail_electric rail_fast ship" speed="11.60" length="29.81" width="3.50" shape="-535.39,-523.43 -537.25,-524.73 -539.19,-525.86 -541.20,-526.78 -543.28,-527.44 -545.43,-527.81 -546.46,-527.86 -547.52,-527.84 -548.58,-527.72 -549.59,-527.53 -551.67,-526.88 -553.62,-525.94 -555.48,-524.74 -557.23,-523.34 -558.87,-521.79 -561.19,-519.19"/>
    </edge>
    <edge id=":55_1" function="internal">
        <lane id=":55_1_0" index="0" disallow="pedestrian tram rail_urban rail rail_electric rail_fast ship" speed="12.44" length="32.80" width="3.50" shape="-535.39,-523.43 -538.21,-525.75 -540.80,-528.36 -542.37,-530.32 -543.73,-532.44 -544.84,-534.75 -545.61,-537.21 -546.01,-539.78 -546.00,-542.37 -545.61,-544.91 -544.89,-547.35 -543.92,-549.67 -542.74,-551.85"/>
    </edge>
    <edge id=":55_2" function="internal">
        <lane id=":55_2_0" index="0" disallow="pedestrian tram rail_urban rail rail_electric rail_fast ship" speed="11.46" length="27.64" width="3.50" shape="-539.73,-550.06 -540.74,-548.19 -541.56,-546.23 -542.15,-544.19 -542.46,-542.09 -542.45,-539.96 -542.10,-537.86 -541.44,-535.84 -540.50,-533.94 -539.34,-532.15 -538.00,-530.50 -535.75,-528.25 -533.28,-526.22"/>
    </edge>
    <edge id=":55_3" function="internal">
        <lane id=":55_3_0" index="0" disallow="pedestrian tram rail_urban rail rail_electric rail_fast ship" speed="36.11" length="37.63" width="3.50" shape="-539.73,-550.06 -545.25,-541.19 -550.49,-533.39 -556.02,-525.79 -561.19,-519.19"/>
    </edge>
    <edge id=":55_4" function="internal">
        <lane id=":55_4_0" index="0" disallow="pedestrian tram rail_urban rail rail_electric rail_fast ship" speed="36.11" length="37.10" width="3.50" shape="-563.89,-521.41 -558.80,-527.90 -553.35,-535.40 -548.18,-543.10 -542.74,-551.85"/>
    </edge>
    <edge id=":55_5" function="internal">
        <lane id=":55_5_0" index="0" disallow="pedestrian tram rail_urban rail rail_electric rail_fast ship" speed="12.57" length="35.24" width="3.50" shape="-563.89,-521.41 -561.28,-524.34 -559.38,-526.13 -557.34,-527.76 -555.14,-529.16 -552.78,-530.28 -550.29,-531.05 -549.01,-531.29 -547.71,-531.42 -546.40,-531.45 -545.10,-531.37 -542.53,-530.92 -540.05,-530.12 -537.68,-529.03 -535.42,-527.72 -533.28,-526.22"/>
    </edge>
    <edge id=":56_0" function="internal">
        <lane id=":56_0_0" index="0" disallow="pedestrian tram rail_urban rail rail_electric rail_fast ship" speed="16.21" length="26.84" width="3.50" shape="-502.91,-587.73 -504.94,-587.23 -509.01,-586.05 -512.94,-584.58 -515.76,-583.27 -518.44,-581.73 -520.93,-579.95 -523.18,-577.89 -524.48,-576.39 -525.65,-574.74"/>
    </edge>
    <edge id=":56_1" function="internal">
        <lane id=":56_1_0" index="0" disallow="pedestrian tram rail_urban rail rail_electric rail_fast ship" speed="6.62" length="14.48" width="3.49" shape="-502.98,-587.71 -503.26,-587.68 -503.58,-587.70 -503.95,-587.76 -504.35,-587.86 -504.80,-588.01 -505.29,-588.20 -505.82,-588.44 -506.39,-588.72 -507.00,-589.05 -507.65,-589.42 -508.35,-589.83 -509.09,-590.29 -509.87,-590.80 -510.69,-591.34 -511.55,-591.94 -512.46,-592.57 -513.40,-593.25 -514.39,-593.98 -515.42,-594.75"/>
    </edge>
    <edge id=":56_2" function="internal">
        <lane id=":56_2_0" index="0" disallow="pedestrian tram rail_urban rail rail_electric rail_fast ship" speed="9.23" length="18.60" width="3.50" shape="-517.70,-597.38 -516.41,-592.52 -515.78,-591.70 -514.95,-591.08 -513.99,-590.66 -512.98,-590.40 -511.95,-590.26 -510.91,-590.20 -509.86,-590.22 -507.78,-590.40 -505.72,-590.72 -503.66,-591.14"/>
    </edge>
    <edge id=":56_3" function="internal">
        <lane id=":56_3_0" index="0" disallow="pedestrian tram rail_urban rail rail_electric rail_fast ship" speed="16.52" length="24.94" width="3.50" shape="-517.70,-597.38 -516.76,-592.34 -516.98,-591.19 -517.73,-588.99 -519.18,-585.82 -521.98,-580.72 -525.65,-574.74"/>
    </edge>
    <edge id=":56_4" function="internal">
        <lane id=":56_4_0" index="0" disallow="pedestrian tram rail_urban rail rail_electric rail_fast ship" speed="36.11" length="19.72" width="3.49" shape="-528.60,-576.63 -528.18,-577.35 -527.76,-578.13 -527.33,-578.99 -526.90,-579.90 -526.46,-580.86 -526.03,-581.87 -525.59,-582.90 -525.16,-583.97 -524.74,-585.04 -524.32,-586.13 -523.92,-587.21 -523.52,-588.29 -523.15,-589.35 -522.79,-590.39 -522.44,-591.39 -522.12,-592.36 -521.83,-593.27 -521.56,-594.13 -521.31,-594.92"/>
    </edge>
    <edge id=":56_5" function="internal">
        <lane id=":56_5_0" index="0" disallow="pedestrian tram rail_urban rail rail_electric rail_fast ship" speed="17.04" length="29.68" width="3.50" shape="-528.65,-576.55 -527.27,-578.50 -525.78,-580.22 -523.28,-582.54 -520.53,-584.54 -517.58,-586.26 -514.50,-587.72 -510.24,-589.33 -505.88,-590.61 -503.66,-591.14"/>
    </edge>
    <edge id=":58_0" function="internal">
        <lane id=":58_0_0" index="0" disallow="pedestrian tram rail_urban rail rail_electric rail_fast ship" speed="11.30" length="28.39" width="3.50" shape="-506.79,-507.72 -508.95,-508.10 -511.13,-508.27 -513.31,-508.19 -515.46,-507.81 -516.50,-507.49 -517.52,-507.09 -518.49,-506.60 -519.42,-506.03 -520.29,-505.37 -521.11,-504.65 -522.57,-503.03 -523.79,-501.22 -524.80,-499.28 -525.63,-497.26 -526.59,-494.13 -526.85,-493.07"/>
    </edge>
    <edge id=":58_1" function="internal">
        <lane id=":58_1_0" index="0" disallow="pedestrian tram rail_urban rail rail_electric rail_fast ship" speed="32.64" length="32.63" width="3.50" shape="-506.79,-507.72 -509.94,-508.59 -513.00,-509.72 -516.94,-511.53 -521.71,-514.14 -527.23,-517.60 -533.45,-521.98 -535.22,-523.30"/>
    </edge>
    <edge id=":58_2" function="internal">
        <lane id=":58_2_0" index="0" disallow="pedestrian tram rail_urban rail rail_electric rail_fast ship" speed="31.73" length="31.13" width="3.50" shape="-533.12,-526.10 -531.41,-524.82 -525.39,-520.58 -520.09,-517.24 -515.54,-514.74 -511.81,-513.01 -508.96,-511.94 -506.05,-511.14"/>
    </edge>
    <edge id=":58_3" function="internal">
        <lane id=":58_3_0" index="0" disallow="pedestrian tram rail_urban rail rail_electric rail_fast ship" speed="14.79" length="35.58" width="3.50" shape="-533.12,-526.10 -531.28,-524.53 -529.70,-522.76 -528.36,-520.81 -527.28,-518.71 -526.43,-516.49 -525.82,-514.21 -525.27,-510.70 -525.09,-507.15 -525.21,-503.60 -525.74,-498.89 -526.59,-494.23 -526.85,-493.07"/>
    </edge>
    <edge id=":58_4" function="internal">
        <lane id=":58_4_0" index="0" disallow="pedestrian tram rail_urban rail rail_electric rail_fast ship" speed="13.93" length="31.53" width="3.50" shape="-530.26,-493.87 -530.03,-494.90 -529.23,-499.21 -528.72,-503.53 -528.59,-506.74 -528.71,-509.93 -529.16,-513.07 -529.66,-515.06 -530.35,-516.99 -531.25,-518.80 -532.36,-520.47 -533.67,-521.97 -535.22,-523.30"/>
    </edge>
    <edge id=":58_5" function="internal">
        <lane id=":58_5_0" index="0" disallow="pedestrian tram rail_urban rail rail_electric rail_fast ship" speed="12.31" length="33.90" width="3.50" shape="-530.26,-493.87 -529.96,-495.09 -528.85,-498.66 -527.87,-501.03 -526.66,-503.31 -525.18,-505.47 -523.42,-507.40 -522.38,-508.31 -521.29,-509.10 -520.13,-509.80 -518.92,-510.39 -517.66,-510.88 -516.34,-511.26 -513.76,-511.70 -511.15,-511.79 -508.58,-511.58 -506.05,-511.14"/>
    </edge>
    <edge id=":59_0" function="internal">
        <lane id=":59_0_0" index="0" disallow="pedestrian tram rail_urban rail rail_electric rail_fast ship" speed="11.40" length="29.20" width="3.50" shape="-442.34,-581.83 -445.53,-582.45 -447.69,-582.64 -449.85,-582.61 -451.99,-582.32 -454.07,-581.72 -455.06,-581.30 -456.02,-580.80 -456.94,-580.22 -457.80,-579.57 -459.35,-578.07 -460.68,-576.37 -461.79,-574.51 -462.71,-572.56 -463.79,-569.50 -464.08,-568.45"/>
    </edge>
    <edge id=":59_1" function="internal">
        <lane id=":59_1_0" index="0" disallow="pedestrian tram rail_urban rail rail_electric rail_fast ship" speed="36.11" length="40.12" width="3.50" shape="-442.34,-581.83 -457.35,-585.41 -468.41,-587.74 -475.51,-588.96 -480.61,-589.58 -481.65,-589.66"/>
    </edge>
    <edge id=":59_2" function="internal">
        <lane id=":59_2_0" index="0" disallow="pedestrian tram rail_urban rail rail_electric rail_fast ship" speed="36.11" length="40.72" width="3.50" shape="-481.45,-593.16 -480.32,-593.07 -475.09,-592.44 -467.87,-591.19 -456.66,-588.84 -441.55,-585.23"/>
    </edge>
    <edge id=":59_3" function="internal">
        <lane id=":59_3_0" index="0" disallow="pedestrian tram rail_urban rail rail_electric rail_fast ship" speed="11.74" length="36.48" width="3.50" shape="-481.45,-593.16 -478.62,-592.88 -475.86,-592.40 -473.16,-591.66 -470.57,-590.59 -469.34,-589.90 -468.18,-589.11 -467.11,-588.22 -466.14,-587.21 -465.28,-586.10 -464.56,-584.89 -463.97,-583.62 -463.52,-582.30 -463.19,-580.94 -462.97,-579.55 -462.83,-576.75 -463.02,-573.96 -463.45,-571.19 -464.08,-568.45"/>
    </edge>
    <edge id=":59_4" function="internal">
        <lane id=":59_4_0" index="0" disallow="pedestrian tram rail_urban rail rail_electric rail_fast ship" speed="10.71" length="30.12" width="3.50" shape="-467.47,-569.33 -466.92,-571.72 -466.54,-574.10 -466.38,-576.47 -466.49,-578.83 -466.67,-579.92 -466.93,-581.01 -467.29,-582.06 -467.74,-583.05 -468.30,-583.98 -468.95,-584.84 -469.70,-585.62 -470.54,-586.33 -471.46,-586.95 -472.41,-587.49 -474.58,-588.39 -476.85,-589.02 -479.21,-589.43 -481.65,-589.66"/>
    </edge>
    <edge id=":59_5" function="internal">
        <lane id=":59_5_0" index="0" disallow="pedestrian tram rail_urban rail rail_electric rail_fast ship" speed="12.39" length="34.69" width="3.50" shape="-467.47,-569.33 -467.12,-570.56 -465.89,-574.06 -464.81,-576.36 -463.48,-578.56 -461.88,-580.61 -460.00,-582.41 -458.92,-583.23 -457.79,-583.94 -456.61,-584.55 -455.35,-585.08 -452.85,-585.78 -450.28,-586.13 -447.71,-586.17 -445.17,-585.94 -441.55,-585.23"/>
    </edge>
    <edge id=":60_0" function="internal">
        <lane id=":60_0_0" index="0" disallow="pedestrian tram rail_urban rail rail_electric rail_fast ship" speed="11.58" length="28.56" width="3.50" shape="-385.37,-550.09 -387.69,-550.52 -389.92,-550.77 -392.13,-550.81 -394.31,-550.63 -396.41,-550.17 -398.43,-549.41 -399.34,-548.94 -400.23,-548.38 -401.06,-547.78 -402.64,-546.30 -403.98,-544.61 -405.13,-542.75 -406.09,-540.76 -407.25,-537.53"/>
    </edge>
    <edge id=":60_1" function="internal">
        <lane id=":60_1_0" index="0" disallow="pedestrian tram rail_urban rail rail_electric rail_fast ship" speed="16.44" length="31.09" width="3.50" shape="-385.37,-550.09 -388.78,-551.00 -392.00,-552.21 -395.08,-553.75 -397.97,-555.61 -400.63,-557.78 -403.05,-560.23 -405.20,-562.91 -407.10,-565.79 -408.76,-568.85"/>
    </edge>
    <edge id=":60_2" function="internal">
        <lane id=":60_2_0" index="0" disallow="pedestrian tram rail_urban rail rail_electric rail_fast ship" speed="15.55" length="27.73" width="3.50" shape="-405.55,-570.26 -404.11,-567.61 -402.40,-565.02 -400.47,-562.60 -398.30,-560.41 -395.92,-558.46 -393.34,-556.79 -390.59,-555.42 -387.70,-554.33 -384.69,-553.52"/>
    </edge>
    <edge id=":60_3" function="internal">
        <lane id=":60_3_0" index="0" disallow="pedestrian tram rail_urban rail rail_electric rail_fast ship" speed="19.36" length="33.44" width="3.50" shape="-405.56,-570.26 -404.75,-568.30 -404.13,-566.15 -403.58,-562.85 -403.41,-559.50 -403.51,-556.15 -403.99,-551.71 -404.99,-546.21 -406.32,-540.79 -407.25,-537.53"/>
    </edge>
    <edge id=":60_4" function="internal">
        <lane id=":60_4_0" index="0" disallow="pedestrian tram rail_urban rail rail_electric rail_fast ship" speed="18.64" length="30.97" width="3.50" shape="-410.60,-538.54 -409.72,-541.62 -408.45,-546.75 -407.49,-551.91 -407.02,-556.05 -406.89,-559.13 -407.02,-562.18 -407.49,-565.16 -408.01,-567.03 -408.76,-568.85"/>
    </edge>
    <edge id=":60_5" function="internal">
        <lane id=":60_5_0" index="0" disallow="pedestrian tram rail_urban rail rail_electric rail_fast ship" speed="12.56" length="33.78" width="3.50" shape="-410.60,-538.54 -409.28,-542.23 -408.15,-544.57 -406.79,-546.78 -405.16,-548.80 -403.27,-550.58 -402.23,-551.35 -401.13,-552.04 -399.98,-552.64 -397.55,-553.55 -395.02,-554.10 -392.43,-554.33 -389.84,-554.28 -387.26,-554.00 -384.69,-553.52"/>
    </edge>
    <edge id=":61_0" function="internal">
        <lane id=":61_0_0" index="0" disallow="pedestrian tram rail_urban rail rail_electric rail_fast ship" speed="10.58" length="30.68" width="3.50" shape="-397.87,-502.27 -398.91,-502.93 -401.07,-504.16 -403.28,-505.19 -405.58,-505.96 -406.69,-506.21 -407.83,-506.37 -408.95,-506.42 -410.06,-506.35 -411.13,-506.15 -412.17,-505.83 -413.16,-505.38 -414.11,-504.81 -414.99,-504.13 -415.82,-503.34 -416.59,-502.48 -417.29,-501.56 -418.58,-499.50 -419.66,-497.31 -421.00,-493.79"/>
    </edge>
    <edge id=":61_1" function="internal">
        <lane id=":61_1_0" index="0" disallow="pedestrian tram rail_urban rail rail_electric rail_fast ship" speed="14.22" length="36.53" width="3.50" shape="-397.87,-502.27 -400.77,-504.31 -403.54,-506.56 -406.14,-509.04 -408.48,-511.79 -409.87,-513.81 -411.08,-515.95 -412.06,-518.22 -412.79,-520.60 -413.24,-523.05 -413.40,-525.53 -413.29,-528.00 -412.92,-530.44 -412.33,-532.79"/>
    </edge>
    <edge id=":61_2" function="internal">
        <lane id=":61_2_0" index="0" disallow="pedestrian tram rail_urban rail rail_electric rail_fast ship" speed="13.34" length="32.05" width="3.50" shape="-408.97,-531.80 -409.49,-529.74 -409.80,-527.62 -409.89,-525.49 -409.73,-523.36 -409.32,-521.26 -408.67,-519.22 -407.79,-517.27 -406.73,-515.42 -405.49,-513.68 -403.39,-511.25 -401.07,-509.05 -398.57,-507.04 -395.95,-505.19"/>
    </edge>
    <edge id=":61_3" function="internal">
        <lane id=":61_3_0" index="0" disallow="pedestrian tram rail_urban rail rail_electric rail_fast ship" speed="36.11" length="39.87" width="3.50" shape="-408.97,-531.80 -413.16,-518.13 -421.00,-493.79"/>
    </edge>
    <edge id=":61_4" function="internal">
        <lane id=":61_4_0" index="0" disallow="pedestrian tram rail_urban rail rail_electric rail_fast ship" speed="36.11" length="39.76" width="3.50" shape="-424.32,-494.88 -416.51,-519.17 -412.33,-532.79"/>
    </edge>
    <edge id=":61_5" function="internal">
        <lane id=":61_5_0" index="0" disallow="pedestrian tram rail_urban rail rail_electric rail_fast ship" speed="11.63" length="37.32" width="3.50" shape="-424.32,-494.88 -422.78,-498.93 -421.51,-501.50 -419.99,-503.93 -419.12,-505.07 -418.16,-506.14 -417.12,-507.12 -415.98,-508.00 -414.75,-508.74 -413.44,-509.33 -412.07,-509.75 -410.66,-510.00 -409.23,-510.09 -407.79,-510.02 -406.37,-509.82 -404.97,-509.50 -402.26,-508.59 -399.65,-507.38 -397.16,-505.96 -395.95,-505.19"/>
    </edge>

    <edge id="30820" from="29" to="58" priority="3" type="highway.residential" spreadType="center" length="17.00" shape="-490.18,-504.13 -523.31,-507.47">
        <lane id="30820_0" index="0" disallow="pedestrian tram rail_urban rail rail_electric rail_fast ship" speed="36.11" length="17.00" width="3.50" customShape="1" shape="-490.18,-504.13 -498.49,-505.93 -506.80,-507.72"/>
    </edge>
    <edge id="30821" from="58" to="18" priority="3" type="highway.residential" spreadType="center" length="16.99" shape="-522.96,-510.95 -489.44,-507.55">
        <lane id="30821_0" index="0" disallow="pedestrian tram rail_urban rail rail_electric rail_fast ship" speed="36.11" length="16.99" width="3.50" customShape="1" shape="-506.05,-511.14 -497.75,-509.35 -489.44,-507.55"/>
    </edge>
    <edge id="30921" from="61" to="41" priority="3" type="highway.residential" spreadType="center" length="34.51" shape="-408.47,-509.42 -431.61,-460.95">
        <lane id="30921_0" index="0" disallow="pedestrian tram rail_urban rail rail_electric rail_fast ship" speed="36.11" length="34.51" width="3.50" customShape="1" shape="-421.00,-493.79 -424.64,-482.71 -431.61,-460.95"/>
    </edge>
    <edge id="30922" from="48" to="61" priority="3" type="highway.residential" spreadType="center" length="34.56" shape="-434.95,-462.02 -411.63,-510.93">
        <lane id="30922_0" index="0" disallow="pedestrian tram rail_urban rail rail_electric rail_fast ship" speed="36.11" length="34.56" width="3.50" customShape="1" shape="-434.95,-462.02 -427.96,-483.79 -424.31,-494.90"/>
    </edge>
    <edge id="30924" from="60" to="61" priority="3" type="highway.residential" spreadType="center" length="6.00" shape="-398.68,-552.77 -408.38,-509.67">
        <lane id="30924_0" index="0" disallow="pedestrian tram rail_urban rail rail_electric rail_fast ship" speed="36.11" length="6.00" width="3.50" customShape="1" shape="-407.25,-537.53 -408.10,-534.69 -408.97,-531.78"/>
    </edge>
    <edge id="30925" from="61" to="60" priority="3" type="highway.residential" spreadType="center" length="6.02" shape="-411.79,-510.44 -402.10,-553.54">
        <lane id="30925_0" index="0" disallow="pedestrian tram rail_urban rail rail_electric rail_fast ship" speed="36.11" length="6.02" width="3.50" customShape="1" shape="-412.33,-532.79 -411.46,-535.69 -410.60,-538.56"/>
    </edge>
    <edge id="31062" from="58" to="17" priority="3" type="highway.residential" spreadType="center" length="70.00" shape="-521.34,-508.78 -543.05,-427.39">
        <lane id="31062_0" index="0" disallow="pedestrian tram rail_urban rail rail_electric rail_fast ship" speed="36.11" length="70.00" width="3.50" customShape="1" shape="-526.85,-493.07 -527.61,-490.10 -528.75,-486.70 -530.21,-483.42 -530.95,-482.08 -532.23,-480.48 -534.12,-478.76 -535.67,-477.42 -536.69,-476.27 -537.44,-474.93 -538.61,-472.09 -539.62,-468.66 -540.37,-464.63 -540.85,-459.53 -541.06,-453.90 -540.71,-451.37 -540.00,-447.85 -539.72,-445.31 -539.79,-443.26 -540.40,-438.18 -541.26,-433.65 -542.43,-429.19 -543.05,-427.39"/>
    </edge>
    <edge id="31063" from="32" to="58" priority="3" type="highway.residential" spreadType="center" length="70.07" shape="-546.48,-428.17 -524.72,-509.68">
        <lane id="31063_0" index="0" disallow="pedestrian tram rail_urban rail rail_electric rail_fast ship" speed="36.11" length="70.07" width="3.50" customShape="1" shape="-546.48,-428.17 -545.75,-430.31 -544.62,-434.63 -543.81,-439.02 -543.24,-443.89 -543.26,-445.75 -543.62,-448.14 -544.31,-451.68 -544.55,-454.36 -544.32,-460.17 -543.79,-465.38 -543.01,-469.54 -541.95,-473.14 -540.75,-476.12 -539.95,-477.66 -538.82,-479.15 -537.21,-480.72 -535.34,-482.37 -534.16,-483.64 -533.51,-484.66 -532.09,-487.76 -530.99,-490.99 -530.24,-493.94"/>
    </edge>
    <edge id="31065" from="55" to="58" priority="3" type="highway.residential" spreadType="center" length="0.25" shape="-544.81,-533.27 -521.75,-510.37">
        <lane id="31065_0" index="0" disallow="pedestrian tram rail_urban rail rail_electric rail_fast ship" speed="36.11" length="0.25" width="3.50" customShape="1" shape="-533.28,-526.22 -533.18,-526.15 -533.08,-526.07"/>
    </edge>
    <edge id="31066" from="58" to="55" priority="3" type="highway.residential" spreadType="center" length="0.21" shape="-524.21,-507.89 -547.27,-530.79">
        <lane id="31066_0" index="0" disallow="pedestrian tram rail_urban rail rail_electric rail_fast ship" speed="36.11" length="0.21" width="3.50" customShape="1" shape="-535.22,-523.30 -535.39,-523.43"/>
    </edge>
    <edge id="31507" from="50" to="61" priority="3" type="highway.residential" spreadType="center" length="11.04" shape="-388.67,-496.20 -411.03,-508.66">
        <lane id="31507_0" index="0" disallow="pedestrian tram rail_urban rail rail_electric rail_fast ship" speed="36.11" length="11.04" width="3.50" customShape="1" shape="-388.67,-496.20 -393.27,-499.24 -397.88,-502.28"/>
    </edge>
    <edge id="31508" from="61" to="44" priority="3" type="highway.residential" spreadType="center" length="11.03" shape="-409.33,-511.71 -386.74,-499.12">
        <lane id="31508_0" index="0" disallow="pedestrian tram rail_urban rail rail_electric rail_fast ship" speed="36.11" length="11.03" width="3.50" customShape="1" shape="-395.95,-505.19 -391.34,-502.16 -386.74,-499.12"/>
    </edge>
    <edge id="31605" from="25" to="59" priority="3" type="highway.residential" spreadType="center" length="17.55" shape="-471.91,-552.36 -464.76,-581.79">
        <lane id="31605_0" index="0" disallow="pedestrian tram rail_urban rail rail_electric rail_fast ship" speed="36.11" length="17.55" width="3.50" customShape="1" shape="-471.91,-552.36 -469.69,-560.85 -467.46,-569.34"/>
    </edge>
    <edge id="31606" from="59" to="28" priority="3" type="highway.residential" spreadType="center" length="17.54" shape="-461.36,-580.96 -468.52,-551.48">
        <lane id="31606_0" index="0" disallow="pedestrian tram rail_urban rail rail_electric rail_fast ship" speed="36.11" length="17.54" width="3.50" customShape="1" shape="-464.08,-568.45 -466.30,-559.97 -468.52,-551.48"/>
    </edge>
    <edge id="31611" from="55" to="9" priority="3" type="highway.residential" spreadType="center" length="70.00" shape="-544.82,-530.77 -610.59,-469.70">
        <lane id="31611_0" index="0" disallow="pedestrian tram rail_urban rail rail_electric rail_fast ship" speed="36.11" length="70.00" width="3.50" customShape="1" shape="-561.19,-519.19 -564.70,-514.93 -570.68,-508.09 -578.71,-499.70 -588.77,-489.78 -600.56,-478.73 -610.59,-469.70"/>
    </edge>
    <edge id="31612" from="31" to="55" priority="3" type="highway.residential" spreadType="center" length="70.00" shape="-613.32,-471.96 -547.20,-533.33">
        <lane id="31612_0" index="0" disallow="pedestrian tram rail_urban rail rail_electric rail_fast ship" speed="36.11" length="70.00" width="3.50" customShape="1" shape="-613.32,-471.96 -602.99,-481.25 -591.27,-492.23 -581.27,-502.10 -573.30,-510.41 -567.38,-517.18 -563.89,-521.42"/>
    </edge>
    <edge id="31614" from="56" to="55" priority="3" type="highway.residential" spreadType="center" length="28.44" shape="-513.98,-583.92 -544.52,-531.15">
        <lane id="31614_0" index="0" disallow="pedestrian tram rail_urban rail rail_electric rail_fast ship" speed="36.11" length="28.44" width="3.50" customShape="1" shape="-525.65,-574.74 -526.95,-572.59 -532.18,-562.71 -539.74,-550.05"/>
    </edge>
    <edge id="31615" from="55" to="56" priority="3" type="highway.residential" spreadType="center" length="28.54" shape="-547.55,-532.90 -517.01,-585.67">
        <lane id="31615_0" index="0" disallow="pedestrian tram rail_urban rail rail_electric rail_fast ship" speed="36.11" length="28.54" width="3.50" customShape="1" shape="-542.74,-551.85 -535.19,-564.49 -529.95,-574.39 -528.60,-576.63"/>
    </edge>
    <edge id="31617" from="59" to="56" priority="3" type="highway.residential" spreadType="center" length="21.49" shape="-463.14,-579.53 -515.64,-583.00">
        <lane id="31617_0" index="0" disallow="pedestrian tram rail_urban rail rail_electric rail_fast ship" speed="36.11" length="21.49" width="3.50" customShape="1" shape="-481.65,-589.66 -482.63,-589.72 -487.11,-589.79 -492.08,-589.48 -497.52,-588.78 -502.98,-587.71"/>
    </edge>
    <edge id="31618" from="56" to="59" priority="3" type="highway.residential" spreadType="center" length="22.42" shape="-515.40,-586.49 -462.91,-583.02">