<!-- generated on Tue Feb  9 22:18:32 2021 by Eclipse SUMO netconvert Version 1.8.0
<configuration xmlns:xsi="http://www.w3.org/2001/XMLSchema-instance" xsi:noNamespaceSchemaLocation="http://sumo.dlr.de/xsd/netconvertConfiguration.xsd">

    <input>
        <node-files value="./converted_scenarios/scenario-factory/PRI_Barceloneta-4_3_I-1-1/PRI_Barceloneta-4_3_I-1-1.nod.xml"/>
        <edge-files value="./converted_scenarios/scenario-factory/PRI_Barceloneta-4_3_I-1-1/PRI_Barceloneta-4_3_I-1-1.edg.xml"/>
        <connection-files value="./converted_scenarios/scenario-factory/PRI_Barceloneta-4_3_I-1-1/PRI_Barceloneta-4_3_I-1-1.con.xml"/>
        <tllogic-files value="./converted_scenarios/scenario-factory/PRI_Barceloneta-4_3_I-1-1/PRI_Barceloneta-4_3_I-1-1.tll.xml"/>
        <type-files value="/home/zen/commonroad-interactive-benchmarks/install/commonroad-map-tool/crmapconverter/sumo_map/templates/DEU.typ.xml"/>
    </input>

    <output>
        <output-file value="./converted_scenarios/scenario-factory/PRI_Barceloneta-4_3_I-1-1/PRI_Barceloneta-4_3_I-1-1.net.xml"/>
    </output>

    <processing>
        <geometry.remove.keep-edges.explicit value="true"/>
        <geometry.avoid-overlap value="true"/>
        <offset.disable-normalization value="true"/>
    </processing>

    <junctions>
        <no-turnarounds value="true"/>
        <junctions.internal-link-detail value="20"/>
    </junctions>

    <report>
        <aggregate-warnings value="5"/>
    </report>

    <random_number>
        <seed value="1234"/>
    </random_number>

</configuration>
--><net xmlns:xsi="http://www.w3.org/2001/XMLSchema-instance" version="1.6" junctionCornerDetail="5" junctionLinkDetail="20" limitTurnSpeed="5.50" xsi:noNamespaceSchemaLocation="http://sumo.dlr.de/xsd/net_file.xsd">

    <location netOffset="0.00,0.00" convBoundary="-299.83,443.13,9.37,649.16" origBoundary="-299.83,443.13,9.37,649.16" projParameter="!"/>

    <type id="highway.bridleway" priority="1" speed="2.78" allow="pedestrian" oneway="1" width="2.00"/>
    <type id="highway.bus_guideway" priority="1" speed="27.78" allow="bus" oneway="1"/>
    <type id="highway.cycleway" priority="1" speed="8.33" allow="bicycle" oneway="0" width="1.00"/>
    <type id="highway.footway" priority="1" speed="2.78" allow="pedestrian" oneway="1" width="2.00"/>
    <type id="highway.ford" priority="1" speed="2.78" allow="army" oneway="0"/>
    <type id="highway.living_street" priority="2" speed="2.78" disallow="tram rail_urban rail rail_electric rail_fast ship" oneway="0"/>
    <type id="highway.motorway" priority="14" speed="39.44" allow="private emergency authority army vip passenger hov taxi bus coach delivery truck trailer motorcycle evehicle custom1 custom2" oneway="1"/>
    <type id="highway.motorway_link" priority="9" speed="22.22" allow="private emergency authority army vip passenger hov taxi bus coach delivery truck trailer motorcycle evehicle custom1 custom2" oneway="1"/>
    <type id="highway.path" priority="1" speed="2.78" allow="pedestrian bicycle" oneway="0" width="2.00"/>
    <type id="highway.pedestrian" priority="1" speed="2.78" allow="pedestrian" oneway="1" width="2.00"/>
    <type id="highway.primary" priority="12" speed="27.78" disallow="pedestrian tram rail_urban rail rail_electric rail_fast ship" oneway="0"/>
    <type id="highway.primary_link" priority="7" speed="22.22" disallow="pedestrian tram rail_urban rail rail_electric rail_fast ship" oneway="0"/>
    <type id="highway.raceway" priority="15" speed="83.33" allow="vip" oneway="0"/>
    <type id="highway.residential" priority="3" speed="13.89" disallow="pedestrian tram rail_urban rail rail_electric rail_fast ship" oneway="0"/>
    <type id="highway.secondary" priority="11" speed="27.78" disallow="pedestrian tram rail_urban rail rail_electric rail_fast ship" oneway="0"/>
    <type id="highway.secondary_link" priority="6" speed="22.22" disallow="pedestrian tram rail_urban rail rail_electric rail_fast ship" oneway="0"/>
    <type id="highway.service" priority="1" speed="5.56" allow="pedestrian delivery bicycle" oneway="0"/>
    <type id="highway.stairs" priority="1" speed="1.39" allow="pedestrian" oneway="1" width="2.00"/>
    <type id="highway.step" priority="1" speed="1.39" allow="pedestrian" oneway="1" width="2.00"/>
    <type id="highway.steps" priority="1" speed="1.39" allow="pedestrian" oneway="1" width="2.00"/>
    <type id="highway.tertiary" priority="10" speed="22.22" disallow="pedestrian tram rail_urban rail rail_electric rail_fast ship" oneway="0"/>
    <type id="highway.tertiary_link" priority="5" speed="22.22" disallow="pedestrian tram rail_urban rail rail_electric rail_fast ship" oneway="0"/>
    <type id="highway.track" priority="1" speed="5.56" allow="pedestrian motorcycle moped bicycle" oneway="0"/>
    <type id="highway.trunk" priority="13" speed="27.78" disallow="pedestrian bicycle tram rail_urban rail rail_electric rail_fast ship" oneway="0"/>
    <type id="highway.trunk_link" priority="8" speed="22.22" disallow="pedestrian bicycle tram rail_urban rail rail_electric rail_fast ship" oneway="0"/>
    <type id="highway.unclassified" priority="4" speed="13.89" disallow="pedestrian tram rail_urban rail rail_electric rail_fast ship" oneway="0"/>
    <type id="highway.unsurfaced" priority="1" speed="8.33" disallow="tram rail_urban rail rail_electric rail_fast ship" oneway="0"/>
    <type id="railway.highspeed" priority="21" speed="69.44" allow="rail_fast" oneway="1"/>
    <type id="railway.light_rail" priority="19" speed="27.78" allow="rail_urban" oneway="1"/>
    <type id="railway.preserved" priority="16" speed="27.78" allow="rail" oneway="1"/>
    <type id="railway.rail" priority="20" speed="44.44" allow="rail" oneway="1"/>
    <type id="railway.subway" priority="18" speed="27.78" allow="rail_urban" oneway="1"/>
    <type id="railway.tram" priority="17" speed="13.89" allow="tram" oneway="1"/>

    <edge id=":73_0" function="internal">
        <lane id=":73_0_0" index="0" disallow="pedestrian tram rail_urban rail rail_electric rail_fast ship" speed="10.48" length="24.79" width="3.50" shape="-175.56,560.90 -176.11,558.80 -176.97,556.82 -177.52,555.90 -178.16,555.03 -178.89,554.24 -179.71,553.53 -180.59,552.92 -181.53,552.39 -182.52,551.96 -183.54,551.61 -185.64,551.16 -187.78,550.96 -189.94,550.96 -193.16,551.27 -195.28,551.62"/>
    </edge>
    <edge id=":73_1" function="internal">
        <lane id=":73_1_0" index="0" disallow="pedestrian tram rail_urban rail rail_electric rail_fast ship" speed="11.52" length="30.41" width="3.50" shape="-175.56,560.90 -175.93,558.26 -175.94,555.62 -175.78,554.31 -175.51,553.01 -175.11,551.76 -174.58,550.54 -173.93,549.39 -173.16,548.32 -172.30,547.32 -171.34,546.41 -169.23,544.83 -166.92,543.54 -164.49,542.50 -160.71,541.31 -158.13,540.71"/>
    </edge>
    <edge id=":73_2" function="internal">
        <lane id=":73_2_0" index="0" disallow="pedestrian tram rail_urban rail rail_electric rail_fast ship" speed="10.45" length="24.85" width="3.50" shape="-157.42,544.13 -159.67,544.65 -162.96,545.67 -165.02,546.54 -166.95,547.58 -168.72,548.86 -169.47,549.55 -170.16,550.32 -170.77,551.14 -171.30,552.01 -171.72,552.93 -172.05,553.89 -172.28,554.89 -172.41,555.88 -172.43,558.04 -172.13,560.20"/>
    </edge>
    <edge id=":73_3" function="internal">
        <lane id=":73_3_0" index="0" disallow="pedestrian tram rail_urban rail rail_electric rail_fast ship" speed="36.11" length="38.59" width="3.50" shape="-157.42,544.13 -191.19,550.83 -195.28,551.62"/>
    </edge>
    <edge id=":73_4" function="internal">
        <lane id=":73_4_0" index="0" disallow="pedestrian tram rail_urban rail rail_electric rail_fast ship" speed="36.11" length="38.54" width="3.50" shape="-195.94,548.18 -191.85,547.40 -158.13,540.71"/>
    </edge>
    <edge id=":73_5" function="internal">
        <lane id=":73_5_0" index="0" disallow="pedestrian tram rail_urban rail rail_electric rail_fast ship" speed="11.55" length="30.31" width="3.50" shape="-195.94,548.18 -193.46,547.78 -189.73,547.44 -187.16,547.46 -184.58,547.74 -182.04,548.35 -180.75,548.82 -179.52,549.40 -178.34,550.11 -177.23,550.93 -176.22,551.87 -175.31,552.90 -174.51,554.02 -173.82,555.22 -172.80,557.65 -172.13,560.20"/>
    </edge>
    <edge id=":74_0" function="internal">
        <lane id=":74_0_0" index="0" disallow="pedestrian tram rail_urban rail rail_electric rail_fast ship" speed="36.11" length="30.39" width="3.50" shape="-101.86,532.90 -116.79,535.89 -131.66,538.87"/>
    </edge>
    <edge id=":74_1" function="internal">
        <lane id=":74_1_0" index="0" disallow="pedestrian tram rail_urban rail rail_electric rail_fast ship" speed="10.69" length="29.30" width="3.50" shape="-101.86,532.90 -103.29,533.12 -104.68,533.21 -106.07,533.15 -107.44,532.92 -108.77,532.50 -110.02,531.89 -111.16,531.09 -112.17,530.13 -113.05,529.05 -113.80,527.88 -114.44,526.64 -115.43,524.03 -116.11,521.33 -116.75,517.20 -117.03,513.03"/>
    </edge>
    <edge id=":74_2" function="internal">
        <lane id=":74_2_0" index="0" disallow="pedestrian tram rail_urban rail rail_electric rail_fast ship" speed="9.53" length="23.11" width="3.50" shape="-113.53,512.91 -113.30,516.52 -112.78,520.07 -112.25,522.33 -111.48,524.51 -111.02,525.49 -110.48,526.42 -109.87,527.26 -109.18,527.99 -108.41,528.60 -107.58,529.08 -106.68,529.41 -105.72,529.61 -104.70,529.69 -103.65,529.63 -102.55,529.47"/>
    </edge>
    <edge id=":74_3" function="internal">
        <lane id=":74_3_0" index="0" disallow="pedestrian tram rail_urban rail rail_electric rail_fast ship" speed="13.20" length="35.00" width="3.50" shape="-113.53,512.91 -113.55,516.55 -113.89,520.18 -114.36,522.62 -115.04,525.02 -115.98,527.36 -117.19,529.59 -118.70,531.66 -120.47,533.51 -122.46,535.11 -124.63,536.42 -126.92,537.47 -129.28,538.28 -131.66,538.87"/>
    </edge>
    <edge id=":74_4" function="internal">
        <lane id=":74_4_0" index="0" disallow="pedestrian tram rail_urban rail rail_electric rail_fast ship" speed="12.26" length="30.07" width="3.50" shape="-132.38,535.44 -130.30,534.93 -128.26,534.23 -126.32,533.33 -124.49,532.20 -122.82,530.85 -121.35,529.29 -120.10,527.54 -119.09,525.64 -118.31,523.64 -117.73,521.57 -117.34,519.46 -117.04,516.25 -117.03,513.03"/>
    </edge>
    <edge id=":74_5" function="internal">
        <lane id=":74_5_0" index="0" disallow="pedestrian tram rail_urban rail rail_electric rail_fast ship" speed="36.11" length="30.42" width="3.50" shape="-132.38,535.44 -117.48,532.46 -102.55,529.47"/>
    </edge>
    <edge id=":75_0" function="internal">
        <lane id=":75_0_0" index="0" disallow="pedestrian tram rail_urban rail rail_electric rail_fast ship" speed="36.11" length="39.55" width="3.48" shape="-231.88,576.72 -233.04,569.48 -235.23,551.91 -236.26,545.75 -237.36,540.66 -238.14,537.70"/>
    </edge>
    <edge id=":75_1" function="internal">
        <lane id=":75_1_0" index="0" disallow="pedestrian tram rail_urban rail rail_electric rail_fast ship" speed="12.27" length="34.58" width="3.50" shape="-231.88,576.72 -232.41,572.72 -232.49,570.07 -232.30,567.42 -231.77,564.82 -231.37,563.55 -230.87,562.32 -230.27,561.13 -229.57,560.01 -228.77,558.94 -227.89,557.95 -226.92,557.04 -224.79,555.46 -222.46,554.18 -220.01,553.16 -217.47,552.38 -214.88,551.80"/>
    </edge>
    <edge id=":75_2" function="internal">
        <lane id=":75_2_0" index="0" disallow="pedestrian tram rail_urban rail rail_electric rail_fast ship" speed="11.28" length="29.01" width="3.50" shape="-214.22,555.23 -216.48,555.75 -218.67,556.42 -220.76,557.28 -222.71,558.35 -224.48,559.67 -225.24,560.39 -225.96,561.19 -226.60,562.04 -227.16,562.94 -227.64,563.90 -228.05,564.90 -228.37,565.90 -228.81,568.09 -228.97,570.33 -228.91,572.59 -228.44,576.08"/>
    </edge>
    <edge id=":75_3" function="internal">
        <lane id=":75_3_0" index="0" disallow="pedestrian tram rail_urban rail rail_electric rail_fast ship" speed="12.74" length="33.24" width="3.48" shape="-214.22,555.24 -216.73,555.59 -219.29,555.69 -221.87,555.47 -224.40,554.88 -225.67,554.43 -226.88,553.88 -228.04,553.23 -229.16,552.48 -231.12,550.80 -232.84,548.86 -234.30,546.77 -235.53,544.55 -237.01,541.15 -238.14,537.70"/>
    </edge>
    <edge id=":75_4" function="internal">
        <lane id=":75_4_0" index="0" disallow="pedestrian tram rail_urban rail rail_electric rail_fast ship" speed="11.78" length="28.20" width="3.50" shape="-234.85,536.54 -233.79,539.76 -232.51,542.73 -231.47,544.63 -230.25,546.41 -228.84,548.04 -227.22,549.46 -226.33,550.08 -225.40,550.62 -224.42,551.08 -223.41,551.46 -221.32,551.97 -219.17,552.18 -217.01,552.10 -214.88,551.80"/>
    </edge>
    <edge id=":75_5" function="internal">
        <lane id=":75_5_0" index="0" disallow="pedestrian tram rail_urban rail rail_electric rail_fast ship" speed="36.11" length="40.09" width="3.50" shape="-234.85,536.54 -233.97,539.78 -232.84,544.97 -231.80,551.24 -229.59,568.88 -228.44,576.08"/>
    </edge>
    <edge id=":76_0" function="internal">
        <lane id=":76_0_0" index="0" disallow="pedestrian tram rail_urban rail rail_electric rail_fast ship" speed="36.11" length="26.84" width="3.50" shape="-151.35,573.42 -177.60,579.01"/>
    </edge>
    <edge id=":76_1" function="internal">
        <lane id=":76_1_0" index="0" disallow="pedestrian tram rail_urban rail rail_electric rail_fast ship" speed="11.64" length="31.03" width="3.50" shape="-151.33,573.42 -155.35,574.04 -158.03,574.24 -160.73,574.21 -163.40,573.89 -164.71,573.60 -166.00,573.21 -167.25,572.71 -168.45,572.09 -169.58,571.36 -170.63,570.52 -171.59,569.57 -172.44,568.53 -173.19,567.41 -173.84,566.23 -174.84,563.73 -175.52,561.09"/>
    </edge>
    <edge id=":76_2" function="internal">
        <lane id=":76_2_0" index="0" disallow="pedestrian tram rail_urban rail rail_electric rail_fast ship" speed="10.59" length="25.46" width="3.50" shape="-172.09,560.40 -171.53,562.59 -170.68,564.65 -170.17,565.55 -169.57,566.42 -168.90,567.21 -168.14,567.93 -167.32,568.56 -166.42,569.11 -165.47,569.57 -164.47,569.95 -163.43,570.25 -162.37,570.47 -160.11,570.71 -157.82,570.72 -155.52,570.54 -152.02,569.98"/>
    </edge>
    <edge id=":76_3" function="internal">
        <lane id=":76_3_0" index="0" disallow="pedestrian tram rail_urban rail rail_electric rail_fast ship" speed="15.25" length="27.52" width="3.50" shape="-172.09,560.41 -172.08,560.72 -172.17,561.12 -172.36,561.62 -172.65,562.21 -173.03,562.89 -173.51,563.67 -174.09,564.53 -174.77,565.49 -175.54,566.55 -176.41,567.69 -177.38,568.93 -178.44,570.26 -179.61,571.69 -180.87,573.20 -182.22,574.81 -183.68,576.51 -185.23,578.31 -186.88,580.20 -188.62,582.18"/>
    </edge>
    <edge id=":76_4" function="internal">
        <lane id=":76_4_0" index="0" disallow="pedestrian tram rail_urban rail rail_electric rail_fast ship" speed="9.88" length="21.56" width="3.50" shape="-185.57,577.23 -185.71,577.17 -183.60,576.42 -181.60,575.49 -179.74,574.32 -178.94,573.68 -178.18,572.97 -177.49,572.20 -176.88,571.37 -176.36,570.49 -175.94,569.56 -175.60,568.59 -175.35,567.58 -175.19,566.54 -175.12,565.51 -175.19,563.31 -175.52,561.09"/>
    </edge>
    <edge id=":76_5" function="internal">
        <lane id=":76_5_0" index="0" disallow="pedestrian tram rail_urban rail rail_electric rail_fast ship" speed="36.11" length="34.33" width="3.50" shape="-185.57,577.23 -172.56,574.27 -152.02,569.98"/>
    </edge>
    <edge id=":78_0" function="internal">
        <lane id=":78_0_0" index="0" disallow="pedestrian tram rail_urban rail rail_electric rail_fast ship" speed="10.65" length="25.32" width="3.50" shape="-71.61,527.37 -74.83,528.09 -76.93,528.75 -78.97,529.58 -80.91,530.62 -81.82,531.24 -82.69,531.91 -83.50,532.66 -84.24,533.48 -84.89,534.36 -85.46,535.31 -85.92,536.30 -86.29,537.34 -86.56,538.41 -86.73,539.50 -86.82,541.69 -86.62,543.89"/>
    </edge>
    <edge id=":78_1" function="internal">
        <lane id=":78_1_0" index="0" disallow="pedestrian tram rail_urban rail rail_electric rail_fast ship" speed="36.11" length="30.58" width="3.50" shape="-71.61,527.37 -86.64,530.12 -101.69,532.87"/>
    </edge>
    <edge id=":78_2" function="internal">
        <lane id=":78_2_0" index="0" disallow="pedestrian tram rail_urban rail rail_electric rail_fast ship" speed="36.11" length="30.60" width="3.50" shape="-102.36,529.43 -87.28,526.67 -72.26,523.93"/>
    </edge>
    <edge id=":78_3" function="internal">
        <lane id=":78_3_0" index="0" disallow="pedestrian tram rail_urban rail rail_electric rail_fast ship" speed="10.24" length="24.66" width="3.50" shape="-102.36,529.43 -100.97,529.21 -99.61,529.11 -98.24,529.12 -96.88,529.28 -95.55,529.60 -94.28,530.10 -93.09,530.77 -92.00,531.60 -91.03,532.56 -90.18,533.63 -89.45,534.79 -88.82,536.00 -87.82,538.55 -87.11,541.19 -86.62,543.89"/>
    </edge>
    <edge id=":78_4" function="internal">
        <lane id=":78_4_0" index="0" disallow="pedestrian tram rail_urban rail rail_electric rail_fast ship" speed="9.00" length="18.90" width="3.50" shape="-90.08,544.39 -90.49,542.14 -91.06,539.96 -91.85,537.87 -92.32,536.94 -92.87,536.04 -93.48,535.23 -94.16,534.51 -94.91,533.90 -95.73,533.40 -96.61,533.03 -97.54,532.78 -98.53,532.64 -99.55,532.62 -100.60,532.70 -101.69,532.87"/>
    </edge>
    <edge id=":78_5" function="internal">
        <lane id=":78_5_0" index="0" disallow="pedestrian tram rail_urban rail rail_electric rail_fast ship" speed="11.73" length="30.73" width="3.50" shape="-90.08,544.39 -90.32,541.77 -90.24,539.12 -90.04,537.74 -89.72,536.40 -89.28,535.08 -88.72,533.81 -88.02,532.60 -87.22,531.46 -86.31,530.42 -85.32,529.47 -84.26,528.61 -83.13,527.83 -80.83,526.56 -78.42,525.55 -75.95,524.77 -72.26,523.93"/>
    </edge>
    <edge id=":79_0" function="internal">
        <lane id=":79_0_0" index="0" disallow="pedestrian tram rail_urban rail rail_electric rail_fast ship" speed="36.11" length="38.51" width="3.50" shape="-66.66,557.43 -82.06,560.03 -104.58,564.15"/>
    </edge>
    <edge id=":79_1" function="internal">
        <lane id=":79_1_0" index="0" disallow="pedestrian tram rail_urban rail rail_electric rail_fast ship" speed="11.47" length="30.52" width="3.50" shape="-66.66,557.43 -70.62,557.92 -73.27,558.03 -75.92,557.92 -78.55,557.54 -79.84,557.23 -81.10,556.81 -82.32,556.29 -83.49,555.67 -84.59,554.92 -85.60,554.07 -86.52,553.11 -87.33,552.06 -88.03,550.93 -88.62,549.75 -89.11,548.51 -89.81,545.95 -90.05,544.65"/>
    </edge>
    <edge id=":79_2" function="internal">
        <lane id=":79_2_0" index="0" disallow="pedestrian tram rail_urban rail rail_electric rail_fast ship" speed="11.02" length="27.45" width="3.50" shape="-86.58,544.15 -86.35,545.38 -86.02,546.52 -85.58,547.59 -85.03,548.57 -84.37,549.47 -83.61,550.29 -82.74,551.03 -81.77,551.69 -80.68,552.26 -79.49,552.76 -78.20,553.17 -76.80,553.51 -75.29,553.76 -73.67,553.93 -71.95,554.02 -70.12,554.03 -68.18,553.96 -66.14,553.81 -63.99,553.57"/>
    </edge>
    <edge id=":79_3" function="internal">
        <lane id=":79_3_0" index="0" disallow="pedestrian tram rail_urban rail rail_electric rail_fast ship" speed="11.74" length="30.38" width="3.50" shape="-86.58,544.14 -86.36,546.76 -86.48,549.39 -86.72,550.76 -87.07,552.09 -87.55,553.38 -88.16,554.62 -88.89,555.79 -89.73,556.88 -90.66,557.88 -91.69,558.80 -93.83,560.32 -96.13,561.55 -98.51,562.53 -100.94,563.30 -104.58,564.15"/>
    </edge>
    <edge id=":79_4" function="internal">
        <lane id=":79_4_0" index="0" disallow="pedestrian tram rail_urban rail rail_electric rail_fast ship" speed="10.65" length="24.99" width="3.50" shape="-105.26,560.72 -102.08,559.98 -100.01,559.33 -97.99,558.53 -96.06,557.53 -94.26,556.30 -93.44,555.59 -92.68,554.82 -91.99,553.97 -91.39,553.07 -90.89,552.10 -90.49,551.09 -90.19,550.05 -89.99,548.98 -89.86,546.81 -90.05,544.65"/>
    </edge>
    <edge id=":79_5" function="internal">
        <lane id=":79_5_0" index="0" disallow="pedestrian tram rail_urban rail rail_electric rail_fast ship" speed="36.11" length="26.59" width="3.50" shape="-105.24,560.71 -79.07,555.98"/>
    </edge>
    <edge id=":81_0" function="internal">
        <lane id=":81_0_0" index="0" disallow="pedestrian tram rail_urban rail rail_electric rail_fast ship" speed="10.92" length="29.30" width="3.50" shape="-12.47,535.49 -12.73,533.14 -13.15,530.85 -13.78,528.65 -14.67,526.56 -15.19,525.62 -15.80,524.71 -16.48,523.88 -17.22,523.11 -18.04,522.43 -18.92,521.83 -19.86,521.31 -20.86,520.89 -21.87,520.55 -24.08,520.08 -26.35,519.91 -28.65,519.97 -32.17,520.40"/>
    </edge>
    <edge id=":81_1" function="internal">
        <lane id=":81_1_0" index="0" disallow="pedestrian tram rail_urban rail rail_electric rail_fast ship" speed="36.11" length="38.21" width="3.50" shape="4.55,510.09 -2.43,512.77 -9.48,515.08 -16.63,517.08 -24.88,519.00 -32.17,520.40"/>
    </edge>
    <edge id=":81_2" function="internal">
        <lane id=":81_2_0" index="0" disallow="pedestrian tram rail_urban rail rail_electric rail_fast ship" speed="13.44" length="38.86" width="3.50" shape="-12.26,492.02 -12.13,494.47 -12.19,498.13 -12.60,501.79 -13.12,504.24 -13.88,506.64 -14.91,508.96 -16.22,511.16 -17.81,513.18 -19.65,514.97 -21.70,516.50 -23.89,517.77 -26.19,518.79 -28.57,519.58 -32.17,520.40"/>
    </edge>
    <edge id=":81_3" function="internal">
        <lane id=":81_3_0" index="0" disallow="pedestrian tram rail_urban rail rail_electric rail_fast ship" speed="12.53" length="33.64" width="3.50" shape="-32.78,516.95 -29.60,516.23 -27.54,515.54 -25.56,514.65 -23.68,513.56 -21.95,512.25 -20.41,510.73 -19.08,509.02 -17.98,507.14 -17.12,505.16 -16.48,503.08 -16.03,500.96 -15.68,497.73 -15.64,494.47 -15.75,492.30"/>
    </edge>
    <edge id=":81_4" function="internal">
        <lane id=":81_4_0" index="0" disallow="pedestrian tram rail_urban rail rail_electric rail_fast ship" speed="36.11" length="37.40" width="3.31" shape="-32.78,516.95 -25.62,515.58 -17.52,513.69 -10.52,511.74 -3.62,509.48 3.16,506.87"/>
    </edge>
    <edge id=":81_5" function="internal">
        <lane id=":81_5_0" index="0" disallow="pedestrian tram rail_urban rail rail_electric rail_fast ship" speed="11.93" length="35.26" width="3.50" shape="-32.78,516.95 -28.73,516.46 -26.02,516.39 -23.32,516.60 -20.66,517.16 -19.38,517.59 -18.13,518.13 -16.94,518.78 -15.82,519.54 -14.79,520.41 -13.84,521.38 -12.99,522.44 -12.23,523.57 -11.58,524.75 -10.52,527.25 -9.77,529.86 -9.28,532.52 -8.98,535.22"/>
    </edge>
    <edge id=":82_0" function="internal">
        <lane id=":82_0_0" index="0" disallow="pedestrian tram rail_urban rail rail_electric rail_fast ship" speed="36.11" length="39.12" width="3.50" shape="-199.89,635.23 -222.28,638.69 -238.58,640.98"/>
    </edge>
    <edge id=":82_1" function="internal">
        <lane id=":82_1_0" index="0" disallow="pedestrian tram rail_urban rail rail_electric rail_fast ship" speed="12.33" length="34.49" width="3.50" shape="-199.89,635.23 -202.54,635.57 -205.19,635.69 -207.83,635.55 -210.44,635.10 -212.96,634.29 -214.17,633.74 -215.32,633.09 -216.41,632.34 -217.44,631.50 -218.39,630.58 -220.06,628.52 -221.43,626.26 -222.52,623.85 -223.38,621.34 -224.30,617.44"/>
    </edge>
    <edge id=":82_2" function="internal">
        <lane id=":82_2_0" index="0" disallow="pedestrian tram rail_urban rail rail_electric rail_fast ship" speed="11.34" length="28.99" width="3.50" shape="-220.86,616.80 -220.06,620.22 -219.32,622.37 -218.40,624.42 -217.26,626.31 -215.87,628.02 -215.12,628.75 -214.30,629.43 -213.42,630.03 -212.49,630.56 -211.55,631.00 -209.45,631.68 -207.28,632.06 -205.04,632.18 -202.76,632.07 -200.45,631.78"/>
    </edge>
    <edge id=":82_3" function="internal">
        <lane id=":82_3_0" index="0" disallow="pedestrian tram rail_urban rail rail_electric rail_fast ship" speed="12.07" length="34.81" width="3.50" shape="-220.86,616.80 -220.33,620.81 -220.26,623.49 -220.47,626.15 -221.02,628.77 -221.45,630.04 -221.98,631.27 -222.62,632.44 -223.36,633.55 -224.21,634.59 -225.15,635.54 -226.17,636.40 -227.26,637.18 -229.59,638.49 -232.07,639.50 -234.64,640.24 -238.58,640.98"/>
    </edge>
    <edge id=":82_4" function="internal">
        <lane id=":82_4_0" index="0" disallow="pedestrian tram rail_urban rail rail_electric rail_fast ship" speed="11.06" length="29.06" width="3.50" shape="-239.08,637.52 -235.61,636.87 -233.43,636.24 -231.34,635.39 -229.39,634.30 -228.53,633.68 -227.71,632.99 -226.96,632.23 -226.28,631.41 -225.69,630.53 -225.18,629.59 -224.75,628.61 -224.42,627.62 -223.95,625.43 -223.78,623.20 -223.84,620.94 -224.30,617.44"/>
    </edge>
    <edge id=":82_5" function="internal">
        <lane id=":82_5_0" index="0" disallow="pedestrian tram rail_urban rail rail_electric rail_fast ship" speed="36.11" length="39.05" width="3.50" shape="-239.08,637.52 -222.79,635.23 -200.45,631.78"/>
    </edge>

    <edge id="19700" from="82" to="58" priority="3" type="highway.residential" spreadType="center" length="61.34" shape="-220.12,631.66 -299.37,649.16">
        <lane id="19700_0" index="0" disallow="pedestrian tram rail_urban rail rail_electric rail_fast ship" speed="36.11" length="61.34" width="3.50" customShape="1" shape="-238.58,640.98 -268.98,645.07 -299.37,649.16"/>
    </edge>
    <edge id="19701" from="68" to="82" priority="3" type="highway.residential" spreadType="center" length="61.33" shape="-299.83,645.69 -220.87,628.24">
        <lane id="19701_0" index="0" disallow="pedestrian tram rail_urban rail rail_electric rail_fast ship" speed="36.11" length="61.33" width="3.50" customShape="1" shape="-299.83,645.69 -269.44,641.60 -239.05,637.51"/>
    </edge>
    <edge id="19703" from="52" to="82" priority="3" type="highway.residential" spreadType="center" length="70.00" shape="-130.84,623.88 -220.42,631.70">
        <lane id="19703_0" index="0" disallow="pedestrian tram rail_urban rail rail_electric rail_fast ship" speed="36.11" length="70.00" width="3.50" customShape="1" shape="-130.84,623.88 -199.91,635.23"/>
    </edge>
    <edge id="19704" from="82" to="50" priority="3" type="highway.residential" spreadType="center" length="70.00" shape="-220.72,628.22 -131.38,620.42">
        <lane id="19704_0" index="0" disallow="pedestrian tram rail_urban rail rail_electric rail_fast ship" speed="36.11" length="70.00" width="3.50" customShape="1" shape="-200.45,631.78 -131.38,620.42"/>
    </edge>
    <edge id="19756" from="81" to="63" priority="3" type="highway.residential" spreadType="center" length="46.27" shape="-11.61,513.47 -5.55,581.36">
        <lane id="19756_0" index="0" disallow="pedestrian tram rail_urban rail rail_electric rail_fast ship" speed="36.11" length="46.27" width="3.50" customShape="1" shape="-8.98,535.22 -7.26,558.29 -5.55,581.36"/>
    </edge>
    <edge id="19757" from="67" to="81" priority="3" type="highway.residential" spreadType="center" length="46.27" shape="-9.03,581.62 -15.09,513.78">
        <lane id="19757_0" index="0" disallow="pedestrian tram rail_urban rail rail_electric rail_fast ship" speed="36.11" length="46.27" width="3.50" customShape="1" shape="-9.03,581.62 -10.75,558.55 -12.47,535.48"/>
    </edge>
    <edge id="19759" from="66" to="81" priority="3" type="highway.residential" spreadType="center" length="23.58" shape="-14.16,468.53 -11.60,513.64">
        <lane id="19759_0" index="0" disallow="pedestrian tram rail_urban rail rail_electric rail_fast ship" speed="36.11" length="23.58" width="3.50" customShape="1" shape="-14.16,468.53 -13.21,480.28 -12.26,492.03"/>
    </edge>
    <edge id="19760" from="81" to="64" priority="3" type="highway.residential" spreadType="center" length="23.57" shape="-15.09,513.84 -17.65,468.81">
        <lane id="19760_0" index="0" disallow="pedestrian tram rail_urban rail rail_electric rail_fast ship" speed="36.11" length="23.57" width="3.50" customShape="1" shape="-15.75,492.30 -16.70,480.57 -17.65,468.81"/>
    </edge>
    <edge id="19810" from="75" to="82" priority="3" type="highway.residential" spreadType="center" length="41.42" shape="-225.32,555.54 -218.79,629.85">
        <lane id="19810_0" index="0" disallow="pedestrian tram rail_urban rail rail_electric rail_fast ship" speed="36.11" length="41.42" width="3.50" customShape="1" shape="-228.44,576.08 -224.65,596.43 -220.86,616.80"/>
    </edge>
    <edge id="19811" from="82" to="75" priority="3" type="highway.residential" spreadType="center" length="41.46" shape="-222.27,630.15 -228.80,555.85">
        <lane id="19811_0" index="0" disallow="pedestrian tram rail_urban rail rail_electric rail_fast ship" speed="36.11" length="41.46" width="3.50" customShape="1" shape="-224.30,617.44 -228.09,597.07 -231.89,576.68"/>
    </edge>
    <edge id="19813" from="56" to="75" priority="3" type="highway.residential" spreadType="center" length="69.83" shape="-294.23,540.28 -226.67,553.99">
        <lane id="19813_0" index="0" disallow="pedestrian tram rail_urban rail rail_electric rail_fast ship" speed="36.11" length="69.83" width="3.50" customShape="1" shape="-294.23,540.28 -293.42,538.84 -292.36,537.57 -291.12,536.48 -287.64,533.78 -283.95,531.35 -280.10,529.21 -276.10,527.36 -271.96,525.83 -267.71,524.65 -263.92,523.93 -260.08,523.54 -256.23,523.51 -252.93,523.80 -249.68,524.40 -246.51,525.34 -243.46,526.62 -240.58,528.23 -238.85,529.60 -237.71,530.80 -236.75,532.14 -235.71,534.09 -234.85,536.54"/>
    </edge>
    <edge id="19814" from="75" to="41" priority="3" type="highway.residential" spreadType="center" length="70.00" shape="-227.21,557.43 -292.27,550.08">