<routes>
	<vehicle depart="0.1" departLane="0" departPos="5.043347608451329" departSpeed="0.547606" id="38" type="passenger">
		<route edges=":75_1 20183"/>
	</vehicle>
	<vehicle depart="0.1" departLane="0" departPos="8.364285749516377" departSpeed="0.8228889" id="310" type="passenger">
		<route edges=":73_5 20195"/>
	</vehicle>
	<vehicle depart="0.1" departLane="0" departPos="16.360984016464776" departSpeed="0.66682132" id="313" type="passenger">
		<route edges="20183 20186"/>
	</vehicle>
	<vehicle depart="0.1" departLane="0" departPos="26.652396512994805" departSpeed="19.154561" id="315" type="passenger">
		<route edges="20185 20182 19810"/>
	</vehicle>
	<vehicle depart="0.1" departLane="0" departPos="21.189283197325004" departSpeed="0.26071793" id="323" type="passenger">
		<route edges=":76_4 20194"/>
	</vehicle>
	<vehicle depart="0.1" departLane="0" departPos="5.330913551856229" departSpeed="1.0092728" id="324" type="passenger">
		<route edges="20183 20186"/>
	</vehicle>
	<vehicle depart="0.1" departLane="0" departPos="23.893546544728355" departSpeed="0.44620688" id="328" type="passenger">
		<route edges=":75_4 20183 20186"/>
	</vehicle>
	<vehicle depart="0.1" departLane="0" departPos="9.155220981522369" departSpeed="1.2320123" id="335" type="passenger">
		<route edges=":75_4 20183"/>
	</vehicle>
	<vehicle depart="0.1" departLane="0" departPos="64.99776033721285" departSpeed="0.61073632" id="338" type="passenger">
		<route edges="19813 19810"/>
	</vehicle>
</routes>
