<routes>
	<vehicle depart="0.1" departLane="0" departPos="71.07575037193828" departSpeed="2.785314" id="336" type="bus">
		<route edges="4644 4647 4650"/>
	</vehicle>
	<vehicle depart="0.1" departLane="0" departPos="2.5" departSpeed="15.178705" id="36" type="passenger">
		<route edges="4646 4552 4676"/>
	</vehicle>
	<vehicle depart="0.1" departLane="0" departPos="19.913641394747184" departSpeed="0.711596" id="38" type="passenger">
		<route edges="4551 4647"/>
	</vehicle>
	<vehicle depart="0.1" departLane="0" departPos="18.56926490377555" departSpeed="18.302103" id="317" type="passenger">
		<route edges=":49_2 4552 4676"/>
	</vehicle>
	<vehicle depart="0.1" departLane="0" departPos="24.405508106342257" departSpeed="0.0" id="318" type="passenger">
		<route edges="4569 4646"/>
	</vehicle>
	<vehicle depart="0.1" departLane="0" departPos="6.921504337786316" departSpeed="0.68312693" id="326" type="passenger">
		<route edges="4551 4647"/>
	</vehicle>
	<vehicle depart="0.1" departLane="0" departPos="55.99553628811506" departSpeed="1.6416875" id="338" type="passenger">
		<route edges="4644 4647"/>
	</vehicle>
	<vehicle depart="0.1" departLane="0" departPos="48.66139844217693" departSpeed="1.4674653" id="342" type="passenger">
		<route edges="4644 4647"/>
	</vehicle>
	<vehicle depart="0.1" departLane="0" departPos="41.20939267419397" departSpeed="0.697371" id="347" type="passenger">
		<route edges="4644 4647"/>
	</vehicle>
	<vehicle depart="0.1" departLane="0" departPos="26.13574308325919" departSpeed="1.1200924" id="352" type="passenger">
		<route edges="4644 4647"/>
	</vehicle>
</routes>
