<routes>
	<vehicle depart="0.1" departLane="0" departPos="57.45938511310481" departSpeed="16.3085" id="35" type="passenger">
		<route edges="67 61"/>
	</vehicle>
	<vehicle depart="0.1" departLane="0" departPos="47.6020428457222" departSpeed="23.4588" id="39" type="passenger">
		<route edges="61"/>
	</vehicle>
	<vehicle depart="0.1" departLane="1" departPos="0" departSpeed="25.4455" id="311" type="passenger">
		<route edges="61"/>
	</vehicle>
	<vehicle depart="0.1" departLane="0" departPos="0" departSpeed="22.4416" id="313" type="passenger">
		<route edges="62 56 67 61"/>
	</vehicle>
	<vehicle depart="0.1" departLane="1" departPos="0" departSpeed="23.5856" id="315" type="passenger">
		<route edges="68 61"/>
	</vehicle>
	<vehicle depart="0.1" departLane="0" departPos="13.253687358738281" departSpeed="16.5422" id="316" type="passenger">
		<route edges="66 68 61"/>
	</vehicle>
	<vehicle depart="0.1" departLane="1" departPos="13.760351344225219" departSpeed="18.7462" id="317" type="passenger">
		<route edges="66 55 68 61"/>
	</vehicle>
	<vehicle depart="0.1" departLane="0" departPos="115.47987534348181" departSpeed="24.2938" id="318" type="passenger">
		<route edges="59 62 56 67 61"/>
	</vehicle>
	<vehicle depart="0.1" departLane="0" departPos="168.51977844083677" departSpeed="21.9676" id="319" type="passenger">
		<route edges="58 66 68 61"/>
	</vehicle>
	<vehicle depart="0.1" departLane="1" departPos="224.2391871685207" departSpeed="19.6346" id="320" type="passenger">
		<route edges="58 66 68 61"/>
	</vehicle>
	<vehicle depart="0.1" departLane="1" departPos="186.96225443310485" departSpeed="21.5555" id="322" type="passenger">
		<route edges="58 66 68 61"/>
	</vehicle>
	<vehicle depart="0.1" departLane="0" departPos="130.6937590277362" departSpeed="22.4868" id="323" type="passenger">
		<route edges="58 66 68 61"/>
	</vehicle>
	<vehicle depart="0.1" departLane="1" departPos="147.15487965306343" departSpeed="23.6817" id="324" type="passenger">
		<route edges="58 66 68 61"/>
	</vehicle>
	<vehicle depart="0.1" departLane="0" departPos="0" departSpeed="22.699" id="325" type="passenger">
		<route edges="59 62 56 67 61"/>
	</vehicle>
	<vehicle depart="0.1" departLane="1" departPos="112.76255820625055" departSpeed="21.0765" id="326" type="passenger">
		<route edges="58 66 68 61"/>
	</vehicle>
	<vehicle depart="0.1" departLane="0" departPos="0" departSpeed="18.8144" id="327" type="passenger">
		<route edges="59 62 56 67 61"/>
	</vehicle>
	<vehicle depart="0.1" departLane="0" departPos="68.69710141592581" departSpeed="15.8235" id="328" type="passenger">
		<route edges="53 65 59 62 56 67 61"/>
	</vehicle>
	<vehicle depart="0.1" departLane="0" departPos="0" departSpeed="8.2769" id="330" type="passenger">
		<route edges="53 65 59 62 56 67 61"/>
	</vehicle>
</routes>
