<routes>
	<vehicle depart="0.1" departLane="0" departPos="54.428644913858626" departSpeed="4.7853408" id="327" type="bicycle">
		<route edges="18477 18616"/>
	</vehicle>
	<vehicle depart="0.1" departLane="0" departPos="24.65756564526842" departSpeed="8.515873" id="320" type="passenger">
		<route edges=":34_1 18553 18724 18813"/>
	</vehicle>
	<vehicle depart="0.1" departLane="0" departPos="11.061579763762463" departSpeed="0.40716178" id="322" type="passenger">
		<route edges="19507 18840"/>
	</vehicle>
	<vehicle depart="0.1" departLane="0" departPos="2.5" departSpeed="1.7419255" id="334" type="passenger">
		<route edges="18752 18635 18575"/>
	</vehicle>
	<vehicle depart="0.1" departLane="0" departPos="11.694076172701587" departSpeed="2.6602462" id="325" type="motorcycle">
		<route edges="18752 18635 18575"/>
	</vehicle>
	<vehicle depart="0.1" departLane="0" departPos="3.75" departSpeed="0.8453608" id="318" type="truck">
		<route edges=":32_0 18616"/>
	</vehicle>
</routes>
