<!-- generated on Tue Feb  9 22:19:28 2021 by Eclipse SUMO netconvert Version 1.8.0
<configuration xmlns:xsi="http://www.w3.org/2001/XMLSchema-instance" xsi:noNamespaceSchemaLocation="http://sumo.dlr.de/xsd/netconvertConfiguration.xsd">

    <input>
        <node-files value="./converted_scenarios/scenario-factory/HRV_Pula-25_2_I-1-1/HRV_Pula-25_2_I-1-1.nod.xml"/>
        <edge-files value="./converted_scenarios/scenario-factory/HRV_Pula-25_2_I-1-1/HRV_Pula-25_2_I-1-1.edg.xml"/>
        <connection-files value="./converted_scenarios/scenario-factory/HRV_Pula-25_2_I-1-1/HRV_Pula-25_2_I-1-1.con.xml"/>
        <tllogic-files value="./converted_scenarios/scenario-factory/HRV_Pula-25_2_I-1-1/HRV_Pula-25_2_I-1-1.tll.xml"/>
        <type-files value="/home/zen/commonroad-interactive-benchmarks/install/commonroad-map-tool/crmapconverter/sumo_map/templates/DEU.typ.xml"/>
    </input>

    <output>
        <output-file value="./converted_scenarios/scenario-factory/HRV_Pula-25_2_I-1-1/HRV_Pula-25_2_I-1-1.net.xml"/>
    </output>

    <processing>
        <geometry.remove.keep-edges.explicit value="true"/>
        <geometry.avoid-overlap value="true"/>
        <offset.disable-normalization value="true"/>
    </processing>

    <junctions>
        <no-turnarounds value="true"/>
        <junctions.internal-link-detail value="20"/>
    </junctions>

    <report>
        <aggregate-warnings value="5"/>
    </report>

    <random_number>
        <seed value="1234"/>
    </random_number>

</configuration>
--><net xmlns:xsi="http://www.w3.org/2001/XMLSchema-instance" version="1.6" junctionCornerDetail="5" junctionLinkDetail="20" limitTurnSpeed="5.50" xsi:noNamespaceSchemaLocation="http://sumo.dlr.de/xsd/net_file.xsd">

    <location netOffset="0.00,0.00" convBoundary="627.84,-689.72,780.88,-515.19" origBoundary="627.84,-689.72,780.88,-515.19" projParameter="!"/>

    <type id="highway.bridleway" priority="1" speed="2.78" allow="pedestrian" oneway="1" width="2.00"/>
    <type id="highway.bus_guideway" priority="1" speed="27.78" allow="bus" oneway="1"/>
    <type id="highway.cycleway" priority="1" speed="8.33" allow="bicycle" oneway="0" width="1.00"/>
    <type id="highway.footway" priority="1" speed="2.78" allow="pedestrian" oneway="1" width="2.00"/>
    <type id="highway.ford" priority="1" speed="2.78" allow="army" oneway="0"/>
    <type id="highway.living_street" priority="2" speed="2.78" disallow="tram rail_urban rail rail_electric rail_fast ship" oneway="0"/>
    <type id="highway.motorway" priority="14" speed="39.44" allow="private emergency authority army vip passenger hov taxi bus coach delivery truck trailer motorcycle evehicle custom1 custom2" oneway="1"/>
    <type id="highway.motorway_link" priority="9" speed="22.22" allow="private emergency authority army vip passenger hov taxi bus coach delivery truck trailer motorcycle evehicle custom1 custom2" oneway="1"/>
    <type id="highway.path" priority="1" speed="2.78" allow="pedestrian bicycle" oneway="0" width="2.00"/>
    <type id="highway.pedestrian" priority="1" speed="2.78" allow="pedestrian" oneway="1" width="2.00"/>
    <type id="highway.primary" priority="12" speed="27.78" disallow="pedestrian tram rail_urban rail rail_electric rail_fast ship" oneway="0"/>
    <type id="highway.primary_link" priority="7" speed="22.22" disallow="pedestrian tram rail_urban rail rail_electric rail_fast ship" oneway="0"/>
    <type id="highway.raceway" priority="15" speed="83.33" allow="vip" oneway="0"/>
    <type id="highway.residential" priority="3" speed="13.89" disallow="pedestrian tram rail_urban rail rail_electric rail_fast ship" oneway="0"/>
    <type id="highway.secondary" priority="11" speed="27.78" disallow="pedestrian tram rail_urban rail rail_electric rail_fast ship" oneway="0"/>
    <type id="highway.secondary_link" priority="6" speed="22.22" disallow="pedestrian tram rail_urban rail rail_electric rail_fast ship" oneway="0"/>
    <type id="highway.service" priority="1" speed="5.56" allow="pedestrian delivery bicycle" oneway="0"/>
    <type id="highway.stairs" priority="1" speed="1.39" allow="pedestrian" oneway="1" width="2.00"/>
    <type id="highway.step" priority="1" speed="1.39" allow="pedestrian" oneway="1" width="2.00"/>
    <type id="highway.steps" priority="1" speed="1.39" allow="pedestrian" oneway="1" width="2.00"/>
    <type id="highway.tertiary" priority="10" speed="22.22" disallow="pedestrian tram rail_urban rail rail_electric rail_fast ship" oneway="0"/>
    <type id="highway.tertiary_link" priority="5" speed="22.22" disallow="pedestrian tram rail_urban rail rail_electric rail_fast ship" oneway="0"/>
    <type id="highway.track" priority="1" speed="5.56" allow="pedestrian motorcycle moped bicycle" oneway="0"/>
    <type id="highway.trunk" priority="13" speed="27.78" disallow="pedestrian bicycle tram rail_urban rail rail_electric rail_fast ship" oneway="0"/>
    <type id="highway.trunk_link" priority="8" speed="22.22" disallow="pedestrian bicycle tram rail_urban rail rail_electric rail_fast ship" oneway="0"/>
    <type id="highway.unclassified" priority="4" speed="13.89" disallow="pedestrian tram rail_urban rail rail_electric rail_fast ship" oneway="0"/>
    <type id="highway.unsurfaced" priority="1" speed="8.33" disallow="tram rail_urban rail rail_electric rail_fast ship" oneway="0"/>
    <type id="railway.highspeed" priority="21" speed="69.44" allow="rail_fast" oneway="1"/>
    <type id="railway.light_rail" priority="19" speed="27.78" allow="rail_urban" oneway="1"/>
    <type id="railway.preserved" priority="16" speed="27.78" allow="rail" oneway="1"/>
    <type id="railway.rail" priority="20" speed="44.44" allow="rail" oneway="1"/>
    <type id="railway.subway" priority="18" speed="27.78" allow="rail_urban" oneway="1"/>
    <type id="railway.tram" priority="17" speed="13.89" allow="tram" oneway="1"/>

    <edge id=":32_0" function="internal">
        <lane id=":32_0_0" index="0" disallow="pedestrian tram rail_urban rail rail_electric rail_fast ship" speed="30.74" length="17.09" width="3.50" shape="705.35,-569.89 709.73,-571.04 715.09,-572.77 719.84,-574.66 721.47,-575.46"/>
    </edge>
    <edge id=":32_1" function="internal">
        <lane id=":32_1_0" index="0" disallow="pedestrian tram rail_urban rail rail_electric rail_fast ship" speed="36.11" length="17.27" width="3.50" shape="707.54,-565.22 713.43,-569.44 721.75,-575.04"/>
        <lane id=":32_1_1" index="1" disallow="pedestrian tram rail_urban rail rail_electric rail_fast ship" speed="36.11" length="17.02" width="3.50" shape="709.67,-562.45 715.44,-566.58 723.67,-572.12"/>
    </edge>
    <edge id=":33_0" function="internal">
        <lane id=":33_0_0" index="0" disallow="pedestrian tram rail_urban rail rail_electric rail_fast ship" speed="36.11" length="16.59" width="3.50" shape="703.02,-557.84 694.91,-554.08 689.70,-552.01 687.77,-551.34"/>
    </edge>
    <edge id=":33_1" function="internal">
        <lane id=":33_1_0" index="0" disallow="pedestrian tram rail_urban rail rail_electric rail_fast ship" speed="31.87" length="15.14" width="3.50" shape="686.68,-554.66 691.98,-556.58 696.69,-558.62 700.57,-560.63"/>
        <lane id=":33_1_1" index="1" disallow="pedestrian tram rail_urban rail rail_electric rail_fast ship" speed="33.05" length="16.17" width="3.50" shape="686.68,-554.66 690.63,-555.77 699.63,-557.77 702.35,-558.60"/>
    </edge>
    <edge id=":34_0" function="internal">
        <lane id=":34_0_0" index="0" disallow="pedestrian tram rail_urban rail rail_electric rail_fast ship" speed="10.23" length="13.63" width="3.49" shape="745.47,-581.45 742.03,-585.82 741.01,-587.77 740.31,-589.86 739.96,-592.03 739.98,-593.50"/>
    </edge>
    <edge id=":34_1" function="internal">
        <lane id=":34_1_0" index="0" disallow="pedestrian tram rail_urban rail rail_electric rail_fast ship" speed="12.59" length="11.68" width="3.49" shape="733.07,-583.89 734.13,-585.07 736.27,-588.03 738.10,-591.19 739.25,-593.73"/>
    </edge>
    <edge id=":34_2" function="internal">
        <lane id=":34_2_0" index="0" disallow="pedestrian tram rail_urban rail rail_electric rail_fast ship" speed="13.31" length="12.66" width="3.49" shape="734.26,-582.13 735.79,-584.95 737.88,-589.67 739.36,-593.70"/>
    </edge>
    <edge id=":35_0" function="internal">
        <lane id=":35_0_0" index="0" disallow="pedestrian tram rail_urban rail rail_electric rail_fast ship" speed="11.13" length="28.42" width="3.50" shape="740.00,-595.36 741.08,-599.34 741.01,-601.00 740.55,-602.61 739.76,-604.08 738.38,-605.83 736.33,-607.71 733.59,-609.63 730.20,-611.55 725.65,-613.68 723.77,-614.41"/>
    </edge>
    <edge id=":35_1" function="internal">
        <lane id=":35_1_0" index="0" disallow="pedestrian tram rail_urban rail rail_electric rail_fast ship" speed="7.64" length="21.07" width="3.50" shape="740.00,-595.36 741.06,-599.22 741.08,-601.29 740.73,-603.85 739.84,-607.37 738.30,-611.77 736.73,-615.58"/>
    </edge>
    <edge id=":35_2" function="internal">
        <lane id=":35_2_0" index="0" disallow="pedestrian tram rail_urban rail rail_electric rail_fast ship" speed="16.80" length="13.09" width="3.49" shape="740.00,-595.36 740.23,-596.09 740.47,-596.81 740.70,-597.50 740.93,-598.17 741.16,-598.81 741.40,-599.44 741.65,-600.05 741.90,-600.65 742.18,-601.23 742.47,-601.80 742.77,-602.36 743.10,-602.91 743.46,-603.45 743.84,-603.99 744.26,-604.52 744.70,-605.05 745.18,-605.58 745.71,-606.10 746.27,-606.63"/>
    </edge>
    <edge id=":37_0" function="internal">
        <lane id=":37_0_0" index="0" disallow="pedestrian tram rail_urban rail rail_electric rail_fast ship" speed="15.45" length="3.33" width="3.50" shape="734.03,-620.29 733.27,-621.51 732.15,-623.03"/>
    </edge>
    <edge id=":38_0" function="internal">
        <lane id=":38_0_0" index="0" disallow="pedestrian tram rail_urban rail rail_electric rail_fast ship" speed="19.49" length="29.22" width="3.50" shape="763.59,-576.72 760.17,-576.72 756.06,-576.32 750.97,-575.41 745.46,-574.02 739.05,-572.01 735.19,-570.62"/>
    </edge>
    <edge id=":38_1" function="internal">
        <lane id=":38_1_0" index="0" disallow="pedestrian tram rail_urban rail rail_electric rail_fast ship" speed="17.82" length="15.77" width="3.50" shape="763.67,-576.94 761.66,-577.25 754.90,-578.07 751.82,-578.69 749.33,-579.50 748.28,-580.01"/>
    </edge>
    <edge id=":38_2" function="internal">
        <lane id=":38_2_0" index="0" disallow="pedestrian tram rail_urban rail rail_electric rail_fast ship" speed="36.11" length="25.93" width="3.50" shape="759.37,-579.97 751.44,-576.82 735.18,-570.64"/>
    </edge>
    <edge id=":38_3" function="internal">
        <lane id=":38_3_0" index="0" disallow="pedestrian tram rail_urban rail rail_electric rail_fast ship" speed="8.13" length="11.67" width="3.50" shape="759.37,-579.97 757.38,-579.24 755.20,-578.73 753.52,-578.58 751.84,-578.66 750.19,-578.99 748.62,-579.58 748.11,-579.86"/>
    </edge>
    <edge id=":39_0" function="internal">
        <lane id=":39_0_0" index="0" disallow="pedestrian tram rail_urban rail rail_electric rail_fast ship" speed="36.11" length="2.34" width="3.50" shape="761.63,-581.13 761.48,-581.03 761.35,-580.95 761.22,-580.88 761.11,-580.82 761.01,-580.76 760.91,-580.71 760.83,-580.66 760.74,-580.61 760.66,-580.57 760.57,-580.53 760.49,-580.49 760.40,-580.45 760.31,-580.41 760.21,-580.36 760.10,-580.31 759.98,-580.26 759.85,-580.20 759.71,-580.13 759.55,-580.06"/>
    </edge>
    <edge id=":39_1" function="internal">
        <lane id=":39_1_0" index="0" disallow="pedestrian tram rail_urban rail rail_electric rail_fast ship" speed="36.11" length="2.35" width="3.50" shape="761.72,-580.95 759.55,-580.06"/>
    </edge>

    <edge id="18466" from="38" to="34" priority="3" type="highway.residential" spreadType="center" length="2.92">
        <lane id="18466_0" index="0" disallow="pedestrian tram rail_urban rail rail_electric rail_fast ship" speed="36.11" length="2.92" width="3.50" customShape="1" shape="747.35,-579.22 745.47,-581.45"/>
    </edge>
    <edge id="18477" from="8" to="32" priority="3" type="highway.residential" spreadType="center" length="79.79">
        <lane id="18477_0" index="0" disallow="pedestrian tram rail_urban rail rail_electric rail_fast ship" speed="36.11" length="79.79" width="3.50" customShape="1" shape="628.81,-561.40 632.93,-559.91 640.02,-557.25 643.89,-556.10 647.35,-555.39 650.86,-555.04 654.40,-555.10 657.90,-555.53 661.84,-556.41 666.17,-557.78 674.63,-561.11 680.77,-563.42 691.84,-566.92 705.34,-569.91"/>
    </edge>
    <edge id="18553" from="34" to="35" priority="3" type="highway.residential" spreadType="center" length="1.78">
        <lane id="18553_0" index="0" disallow="pedestrian tram rail_urban rail rail_electric rail_fast ship" speed="36.11" length="1.78" width="3.49" customShape="1" shape="739.45,-593.67 740.00,-595.36"/>
    </edge>
    <edge id="18575" from="33" to="6" priority="3" type="highway.residential" spreadType="center" length="70.00" shape="700.35,-556.21 629.24,-515.19">
        <lane id="18575_0" index="0" disallow="pedestrian tram rail_urban rail rail_electric rail_fast ship" speed="36.11" length="70.00" width="3.50" customShape="1" shape="687.77,-551.34 685.87,-550.72 674.98,-547.00 667.52,-544.11 661.14,-541.25 656.26,-538.70 652.01,-536.07 647.12,-532.60 643.22,-529.46 638.83,-525.37 632.88,-519.30 629.24,-515.19"/>
    </edge>
    <edge id="18576" from="4" to="33" priority="3" type="highway.residential" spreadType="center" length="70.01" shape="627.84,-518.89 698.61,-559.25">
        <lane id="18576_0" index="0" disallow="pedestrian tram rail_urban rail rail_electric rail_fast ship" speed="36.11" length="70.01" width="3.50" customShape="1" shape="627.84,-518.89 630.55,-521.92 636.62,-528.10 641.14,-532.28 645.16,-535.50 650.19,-539.06 654.58,-541.77 659.60,-544.39 666.13,-547.32 673.73,-550.27 684.75,-554.03 686.68,-554.67"/>
    </edge>
    <edge id="18613" from="33" to="32" priority="3" type="highway.residential" spreadType="center" length="8.05">
        <lane id="18613_0" index="0" disallow="pedestrian tram rail_urban rail rail_electric rail_fast ship" speed="36.11" length="8.28" width="3.50" customShape="1" shape="701.00,-560.14 707.31,-565.05 707.53,-565.23"/>
        <lane id="18613_1" index="1" disallow="pedestrian tram rail_urban rail rail_electric rail_fast ship" speed="36.11" length="8.05" width="3.50" customShape="1" shape="703.31,-557.51 709.67,-562.45"/>
    </edge>
    <edge id="18616" from="32" to="34" priority="3" type="highway.residential" spreadType="center" length="14.34">
        <lane id="18616_0" index="0" disallow="pedestrian tram rail_urban rail rail_electric rail_fast ship" speed="36.11" length="14.34" width="3.50" customShape="1" shape="721.71,-575.10 733.70,-582.96"/>
        <lane id="18616_1" index="1" disallow="pedestrian tram rail_urban rail rail_electric rail_fast ship" speed="36.11" length="14.38" width="3.50" customShape="1" shape="723.65,-572.16 728.63,-575.45 735.60,-580.15"/>
    </edge>
    <edge id="18635" from="38" to="33" priority="3" type="highway.residential" spreadType="center" length="34.85">
        <lane id="18635_0" index="0" disallow="pedestrian tram rail_urban rail rail_electric rail_fast ship" speed="36.11" length="34.85" width="3.50" customShape="1" shape="735.19,-570.64 732.43,-569.60 730.67,-568.93 722.44,-565.83 714.21,-562.73 714.09,-562.69 702.58,-558.35"/>
    </edge>
    <edge id="18687" from="35" to="19" priority="3" type="highway.residential" spreadType="center" length="75.78">
        <lane id="18687_0" index="0" disallow="pedestrian tram rail_urban rail rail_electric rail_fast ship" speed="36.11" length="75.78" width="3.50" customShape="1" shape="723.87,-614.71 711.15,-618.74 703.84,-620.64 694.46,-622.59 681.60,-625.09 650.08,-631.70"/>
    </edge>
    <edge id="18724" from="35" to="37" priority="3" type="highway.residential" spreadType="center" length="7.18">
        <lane id="18724_0" index="0" disallow="pedestrian tram rail_urban rail rail_electric rail_fast ship" speed="36.11" length="7.18" width="3.50" customShape="1" shape="736.73,-615.58 737.08,-614.76 734.61,-620.54"/>
    </edge>
    <edge id="18752" from="28" to="38" priority="3" type="highway.residential" spreadType="center" length="18.07">
        <lane id="18752_0" index="0" disallow="pedestrian tram rail_urban rail rail_electric rail_fast ship" speed="36.11" length="18.07" width="3.50" customShape="1" shape="780.88,-571.44 773.73,-574.27 763.91,-577.63"/>
    </edge>
    <edge id="18812" from="29" to="30" priority="3" type="highway.residential" spreadType="center" length="65.05">
        <lane id="18812_0" index="0" disallow="pedestrian tram rail_urban rail rail_electric rail_fast ship" speed="36.11" length="65.05" width="3.50" customShape="1" shape="683.05,-689.72 702.39,-663.88 710.46,-653.55 717.25,-645.43 723.40,-638.75"/>
    </edge>
    <edge id="18813" from="37" to="27" priority="3" type="highway.residential" spreadType="center" length="82.86">
        <lane id="18813_0" index="0" disallow="pedestrian tram rail_urban rail rail_electric rail_fast ship" speed="36.11" length="82.86" width="3.50" customShape="1" shape="732.68,-623.52 714.65,-643.08 707.80,-651.28 699.67,-661.68 680.26,-687.59"/>
    </edge>
    <edge id="18840" from="39" to="38" priority="3" type="highway.residential" spreadType="center" length="0.20">
        <lane id="18840_0" index="0" disallow="pedestrian tram rail_urban rail rail_electric rail_fast ship" speed="36.11" length="0.20" width="3.50" customShape="1" shape="759.55,-580.06 759.37,-579.97"/>
    </edge>
    <edge id="19507" from="40" to="39" priority="3" type="highway.residential" spreadType="center" length="11.39">
        <lane id="19507_0" index="0" disallow="pedestrian tram rail_urban rail rail_electric rail_fast ship" speed="36.11" length="11.39" width="3.50" customShape="1" shape="772.74,-583.74 767.61,-582.72 763.12,-581.49 761.72,-580.95"/>
    </edge>
    <edge id="20885" from="40" to="39" priority="3" type="highway.residential" spreadType="center" length="11.40">
        <lane id="20885_0" index="0" disallow="pedestrian tram rail_urban rail rail_electric rail_fast ship" speed="36.11" length="11.40" width="3.50" customShape="1" shape="768.96,-589.48 768.77,-588.86 767.85,-586.93 766.62,-585.16 765.15,-583.60 763.48,-582.25 761.63,-581.13"/>
    </edge>
    <edge id="21017" from="35" to="36" priority="3" type="highway.residential" spreadType="center" length="1.32">
        <lane id="21017_0" index="0" disallow="pedestrian tram rail_urban rail rail_electric rail_fast ship" speed="36.11" length="1.32" width="3.49" customShape="1" shape="746.27,-606.63 747.24,-607.52"/>
    </edge>

    <junction id="19" type="dead_end" x="650.08" y="-631.70" incLanes="18687_0" intLanes="" shape="649.72,-629.98 650.44,-633.41" rightOfWay="edgePriority"/>
    <junction id="27" type="dead_end" x="680.26" y="-687.59" incLanes="18813_0" intLanes="" shape="678.86,-686.55 681.66,-688.64" rightOfWay="edgePriority"/>
    <junction id="28" type="dead_end" x="780.88" y="-571.44" incLanes="" intLanes="" shape="781.53,-573.07 780.24,-569.82" rightOfWay="edgePriority"/>
    <junction id="29" type="dead_end" x="683.05" y="-689.72" incLanes="" intLanes="" shape="681.65,-688.67 684.45,-690.77" rightOfWay="edgePriority"/>
    <junction id="30" type="dead_end" x="723.40" y="-638.75" incLanes="18812_0" intLanes="" shape="724.69,-639.93 722.12,-637.56" rightOfWay="edgePriority"/>
    <junction id="32" type="priority" x="710.28" y="-569.94" incLanes="18477_0 18613_0 18613_1" intLanes=":32_0_0 :32_1_0 :32_1_1" shape="724.61,-570.70 720.75,-576.56 717.74,-574.75 715.38,-573.67 713.29,-573.06 711.11,-572.69 708.46,-572.29 704.97,-571.62 705.72,-568.20 706.47,-566.61 710.73,-561.06">
        <request index="0" response="110" foes="110" cont="0"/>
        <request index="1" response="000" foes="001" cont="0"/>
        <request index="2" response="000" foes="001" cont="0"/>
    </junction>
    <junction id="33" type="priority" x="699.44" y="-557.71" incLanes="18635_0 18576_0" intLanes=":33_0_0 :33_1_0 :33_1_1" shape="703.81,-556.94 699.84,-561.45 697.31,-559.67 695.27,-558.63 693.43,-558.06 691.49,-557.67 689.16,-557.19 686.13,-556.33 688.32,-549.68 691.73,-550.94 694.17,-552.08 696.11,-553.18 698.04,-554.31 700.45,-555.54">
        <request index="0" response="000" foes="000" cont="0"/>
        <request index="1" response="000" foes="000" cont="0"/>
        <request index="2" response="000" foes="000" cont="0"/>
    </junction>
    <junction id="34" type="priority" x="737.37" y="-586.01" incLanes="18466_0 18616_0 18616_1" intLanes=":34_0_0 :34_1_0 :34_2_0" shape="744.13,-580.32 746.80,-582.58 741.11,-593.13 737.79,-594.20 737.15,-591.86 736.75,-590.00 736.35,-588.47 735.71,-587.12 734.58,-585.82 732.72,-584.41 736.58,-578.71">
        <request index="0" response="110" foes="110" cont="0"/>
        <request index="1" response="100" foes="101" cont="0"/>
        <request index="2" response="000" foes="011" cont="0"/>
    </junction>
    <junction id="35" type="priority" x="732.08" y="-609.60" incLanes="18553_0" intLanes=":35_0_0 :35_1_0 :35_2_0" shape="738.33,-595.89 741.66,-594.82 748.05,-605.90 744.53,-607.35 738.34,-616.26 735.12,-614.89 724.40,-616.37 723.34,-613.04">
        <request index="0" response="000" foes="000" cont="0"/>
        <request index="1" response="000" foes="000" cont="0"/>
        <request index="2" response="000" foes="000" cont="0"/>
    </junction>
    <junction id="36" type="dead_end" x="747.24" y="-607.52" incLanes="21017_0" intLanes="" shape="746.07,-608.81 748.42,-606.23"/>
    <junction id="37" type="priority" x="728.94" y="-625.61" incLanes="18724_0" intLanes=":37_0_0" shape="733.00,-619.85 736.21,-621.22 735.58,-622.63 735.31,-623.11 734.99,-623.55 734.56,-624.05 733.97,-624.70 731.39,-622.33 732.12,-621.50 732.35,-621.19 732.55,-620.85 732.75,-620.43">
        <request index="0" response="0" foes="0" cont="0"/>
    </junction>
    <junction id="38" type="priority" x="751.84" y="-577.42" incLanes="18752_0 18840_0" intLanes=":38_0_0 :38_1_0 :38_2_0 :38_3_0" shape="763.34,-575.98 764.48,-579.29 764.41,-580.41 762.93,-583.58 748.68,-580.35 746.01,-578.10 745.17,-576.94 743.63,-576.07 741.36,-575.00 738.33,-573.73 734.57,-572.27 735.80,-569.00 741.53,-571.58 745.86,-574.06 749.52,-576.10 753.18,-577.33 757.56,-577.41">
        <request index="0" response="0000" foes="0100" cont="0"/>
        <request index="1" response="0000" foes="1100" cont="0"/>
        <request index="2" response="0011" foes="0011" cont="0"/>
        <request index="3" response="0010" foes="0010" cont="0"/>
    </junction>
    <junction id="39" type="priority" x="760.23" y="-580.38" incLanes="20885_0 19507_0" intLanes=":39_0_0 :39_1_0" shape="762.50,-579.38 760.85,-582.70 758.19,-581.35 759.68,-578.18">
        <request index="0" response="10" foes="10" cont="0"/>
        <request index="1" response="00" foes="01" cont="0"/>
    </junction>
    <junction id="4" type="dead_end" x="627.84" y="-518.89" incLanes="" intLanes="" shape="629.15,-517.73 626.54,-520.05" rightOfWay="edgePriority"/>
    <junction id="40" type="dead_end" x="771.80" y="-587.47" incLanes="" intLanes="" shape="767.29,-589.99 770.63,-588.98 772.40,-585.45 773.08,-582.02"/>
    <junction id="6" type="dead_end" x="629.24" y="-515.19" incLanes="18575_0" intLanes="" shape="630.54,-514.03 627.93,-516.35" rightOfWay="edgePriority"/>
    <junction id="8" type="dead_end" x="628.81" y="-561.40" incLanes="" intLanes="" shape="628.21,-559.75 629.40,-563.04" rightOfWay="edgePriority"/>

    <connection from="18466" to="18553" fromLane="0" toLane="0" contPos="-4.00" shape="743.65,-583.60 742.03,-585.82 741.01,-587.77 740.31,-589.86 739.96,-592.03 739.99,-594.23 740.37,-596.40 740.67,-597.46" via=":34_0_0" dir="l" state="m"/>
    <connection from="18477" to="18616" fromLane="0" toLane="0" contPos="-4.00" shape="695.78,-567.79 703.30,-569.36 709.73,-571.04 715.09,-572.77 719.84,-574.66 723.52,-576.46 726.60,-578.30" via=":32_0_0" dir="s" state="m"/>
    <connection from="18553" to="18687" fromLane="0" toLane="0" contPos="-4.00" shape="740.75,-597.70 741.08,-599.34 741.01,-601.00 740.55,-602.61 739.76,-604.08 738.38,-605.83 736.33,-607.71 733.59,-609.63 730.20,-611.55 725.65,-613.68 719.94,-615.90 718.36,-616.46" via=":35_0_0" dir="r" state="M"/>
    <connection from="18553" to="18724" fromLane="0" toLane="0" contPos="-4.00" shape="740.75,-597.70 741.06,-599.22 741.08,-601.29 740.73,-603.85 739.84,-607.37 738.30,-611.77 737.13,-614.64" via=":35_1_0" dir="s" state="M"/>
    <connection from="18553" to="21017" fromLane="0" toLane="0" contPos="-4.00" via=":35_2_0" dir="l" state="M"/>
    <connection from="18576" to="18613" fromLane="0" toLane="0" contPos="-4.00" shape="686.68,-554.66 691.98,-556.58 696.69,-558.62 700.79,-560.74 704.72,-563.17 707.22,-564.98" via=":33_1_0" dir="s" state="M"/>
    <connection from="18576" to="18613" fromLane="0" toLane="1" contPos="-4.00" shape="686.68,-554.66 690.63,-555.77 699.63,-557.77 703.06,-558.82 705.89,-560.03 708.10,-561.31 709.34,-562.20" via=":33_1_1" dir="s" state="M"/>
    <connection from="18613" to="18616" fromLane="0" toLane="0" contPos="-4.00" shape="707.40,-565.12 713.43,-569.44 726.60,-578.30" via=":32_1_0" dir="s" state="M"/>
    <connection from="18613" to="18616" fromLane="1" toLane="1" contPos="-4.00" shape="709.52,-562.34 715.44,-566.58 728.52,-575.38" via=":32_1_1" dir="s" state="M"/>
    <connection from="18616" to="18553" fromLane="0" toLane="0" contPos="-4.00" shape="726.78,-578.42 729.73,-580.62 732.04,-582.74 734.13,-585.07 736.27,-588.03 738.10,-591.19 739.61,-594.51 740.67,-597.46" via=":34_1_0" dir="r" state="m"/>
    <connection from="18616" to="18553" fromLane="1" toLane="0" contPos="-4.00" shape="728.77,-575.54 730.34,-576.83 732.06,-578.76 733.81,-581.31 735.79,-584.95 737.88,-589.67 740.03,-595.50 740.67,-597.46" via=":34_2_0" dir="r" state="M"/>
    <connection from="18635" to="18575" fromLane="0" toLane="0" contPos="-4.00" shape="713.97,-562.64 708.32,-560.30 694.91,-554.08 689.70,-552.01 687.77,-551.34" via=":33_0_0" dir="s" state="M"/>
    <connection from="18724" to="18813" fromLane="0" toLane="0" contPos="-4.00" shape="737.03,-614.87 735.43,-618.06 733.27,-621.51 729.94,-626.01 725.69,-631.09 720.86,-636.35" via=":37_0_0" dir="s" state="M"/>
    <connection from="18752" to="18635" fromLane="0" toLane="0" contPos="-4.00" shape="769.37,-575.76 766.86,-576.37 763.78,-576.72 760.17,-576.72 756.06,-576.32 750.97,-575.41 745.46,-574.02 739.05,-572.01 734.19,-570.26" via=":38_0_0" dir="R" state="M"/>
    <connection from="18752" to="18466" fromLane="0" toLane="0" contPos="-4.00" shape="769.37,-575.76 766.32,-576.54 761.66,-577.25 754.90,-578.07 751.82,-578.69 749.33,-579.50 747.44,-580.41 745.70,-581.58 744.17,-583.00 743.82,-583.40" via=":38_1_0" dir="s" state="M"/>
    <connection from="18840" to="18635" fromLane="0" toLane="0" contPos="-4.00" shape="759.99,-580.27 751.44,-576.82 734.19,-570.26" via=":38_2_0" dir="s" state="m"/>
    <connection from="18840" to="18466" fromLane="0" toLane="0" contPos="-4.00" shape="759.99,-580.27 757.38,-579.24 755.20,-578.73 753.52,-578.58 751.84,-578.66 750.19,-578.99 748.62,-579.58 747.15,-580.40 745.37,-581.78 743.82,-583.40" via=":38_3_0" dir="l" state="m"/>
    <connection from="19507" to="18840" fromLane="0" toLane="0" contPos="-4.00" via=":39_1_0" dir="s" state="M"/>
    <connection from="20885" to="18840" fromLane="0" toLane="0" contPos="-4.00" via=":39_0_0" dir="s" state="m"/>

    <connection from=":32_0" to="18616" fromLane="0" toLane="0" dir="s" state="M"/>
    <connection from=":32_1" to="18616" fromLane="0" toLane="0" dir="s" state="M"/>
    <connection from=":32_1" to="18616" fromLane="1" toLane="1" dir="s" state="M"/>
    <connection from=":33_0" to="18575" fromLane="0" toLane="0" dir="s" state="M"/>
    <connection from=":33_1" to="18613" fromLane="0" toLane="0" dir="s" state="M"/>
    <connection from=":33_1" to="18613" fromLane="1" toLane="1" dir="s" state="M"/>
    <connection from=":34_0" to="18553" fromLane="0" toLane="0" dir="l" state="M"/>
    <connection from=":34_1" to="18553" fromLane="0" toLane="0" dir="r" state="M"/>
    <connection from=":34_2" to="18553" fromLane="0" toLane="0" dir="r" state="M"/>
    <connection from=":35_0" to="18687" fromLane="0" toLane="0" dir="r" state="M"/>
    <connection from=":35_1" to="18724" fromLane="0" toLane="0" dir="s" state="M"/>
    <connection from=":35_2" to="21017" fromLane="0" toLane="0" dir="l" state="M"/>
    <connection from=":37_0" to="18813" fromLane="0" toLane="0" dir="s" state="M"/>
    <connection from=":38_0" to="18635" fromLane="0" toLane="0" dir="R" state="M"/>
    <connection from=":38_1" to="18466" fromLane="0" toLane="0" dir="s" state="M"/>
    <connection from=":38_2" to="18635" fromLane="0" toLane="0" dir="s" state="M"/>
    <connection from=":38_3" to="18466" fromLane="0" toLane="0" dir="l" state="M"/>
    <connection from=":39_0" to="18840" fromLane="0" toLane="0" dir="s" state="M"/>
    <connection from=":39_1" to="18840" fromLane="0" toLane="0" dir="s" state="M"/>

</net>