<!-- generated on 2020-12-18 15:56:46.064021 by ipykernel_launcher.py v1_2_0+5214-53edc58fcd
-->
<nodes>
	<node id="1" type="from" x="-18.1837" y="56.797775"/>
	<node id="2" type="to" x="-17.48045" y="45.0905"/>
	<node id="3" type="from" x="-9.697249999999999" y="45.31223333333333"/>
	<node id="4" type="to" x="-10.484533333333333" y="57.063250000000004"/>
	<node id="5" type="from" x="-16.194825" y="25.1497"/>
	<node id="6" type="to" x="-15.670925" y="4.26745"/>
	<node id="7" type="to" x="-15.223825000000001" y="-14.387475"/>
	<node id="8" type="to" x="-15.0845" y="-24.978625"/>
	<node id="9" type="to" x="-14.200433333333335" y="-51.4592"/>
	<node id="10" type="to" x="-14.806266666666666" y="-63.09705"/>
	<node id="11" type="from" x="-7.24765" y="-63.37835"/>
	<node id="12" type="to" x="-6.6362749999999995" y="-51.634025"/>
	<node id="13" type="to" x="-7.445250000000001" y="-25.000016666666664"/>
	<node id="14" type="to" x="-7.424883333333334" y="-14.412166666666666"/>
	<node id="15" type="to" x="-7.900433333333335" y="4.4647"/>
	<node id="16" type="to" x="-8.463366666666666" y="25.333183333333334"/>
	<node id="17" type="to" x="-27.372149999999998" y="17.68905"/>
	<node id="18" type="from" x="-27.27395" y="13.8255"/>
	<node id="19" type="to" x="0.0268415" y="-4.7312"/>
	<node id="20" type="to" x="12.6777" y="-4.7829999999999995"/>
	<node id="21" type="from" x="12.4722" y="-0.36550000000000005"/>
	<node id="22" type="to" x="0.0092555" y="-0.37075000000000014"/>
	<node id="23" type="to" x="0.508335" y="-45.9213"/>
	<node id="24" type="to" x="5.57855" y="-46.1281"/>
	<node id="25" type="from" x="5.6871" y="-40.620050000000006"/>
	<node id="26" type="to" x="0.67911" y="-40.4104"/>
	<node id="27" type="from" x="-32.465999999999994" y="34.353"/>
	<node id="28" type="to" x="-24.052149999999997" y="34.35935"/>
	<node id="29" type="from" x="-24.088549999999998" y="36.9645"/>
	<node id="30" type="to" x="-32.502399999999994" y="36.958200000000005"/>
	<node id="31" type="from" x="2.6744" y="34.127849999999995"/>
	<node id="32" type="to" x="35.3884" y="34.1276"/>
	<node id="33" type="from" x="35.372749999999996" y="36.9941"/>
	<node id="34" type="to" x="2.65815" y="36.994299999999996"/>
	<node id="35" type="to" x="-17.07695" y="38.310375"/>
	<node id="36" type="from" x="-9.314716666666667" y="38.34648333333334"/>
	<node id="37" type="from" x="-16.742075" y="33.01985"/>
	<node id="38" type="to" x="-8.99245" y="32.84846666666667"/>
	<node id="39" type="from" x="-4.707649999999999" y="34.19905"/>
	<node id="40" type="to" x="-4.895" y="36.990899999999996"/>
	<node id="41" type="to" x="-19.5787" y="34.426"/>
	<node id="42" type="to" x="-19.733600000000003" y="37.02845"/>
</nodes>
