<routes>
	<vehicle depart="0.1" departLane="1" departPos="0" departSpeed="10.0188" id="405" type="passenger">
		<route edges="43199 43203 43207 43213 43213 43219"/>
	</vehicle>
	<vehicle depart="0.1" departLane="0" departPos="0" departSpeed="11.7287" id="407" type="passenger">
		<route edges="43203 43207 43213 43219"/>
	</vehicle>
	<vehicle depart="0.1" departLane="0" departPos="18.625974067822398" departSpeed="13.5514" id="413" type="passenger">
		<route edges="43597 43199 43199 43453 43203 43207 43213 43219"/>
	</vehicle>
	<vehicle depart="0.1" departLane="0" departPos="0" departSpeed="11.43" id="415" type="passenger">
		<route edges="43481 43505 43481 43519 43491 43511 43199 43451 43199 43453 43203 43207 43213 43219"/>
	</vehicle>
	<vehicle depart="0.1" departLane="1" departPos="0" departSpeed="11.5641" id="418" type="passenger">
		<route edges="43481 43595 43515 43527 43597 43497 43247 43199 43203 43207 43213 43219"/>
	</vehicle>
</routes>
