<routes>
	<vehicle depart="0.1" departLane="0" departPos="84.68062417746549" departSpeed="0.0" id="331" type="passenger">
		<route edges="4057 3541"/>
	</vehicle>
	<vehicle depart="0.1" departLane="0" departPos="29.554879394209994" departSpeed="3.3848925" id="340" type="passenger">
		<route edges="3904 3541 3595"/>
	</vehicle>
	<vehicle depart="0.1" departLane="0" departPos="19.093182928904973" departSpeed="1.4209598" id="352" type="passenger">
		<route edges="3904 4058"/>
	</vehicle>
	<vehicle depart="0.1" departLane="0" departPos="14.124452458955746" departSpeed="0.084253546" id="360" type="passenger">
		<route edges="3904 4058"/>
	</vehicle>
	<vehicle depart="0.1" departLane="0" departPos="91.87268192536528" departSpeed="0.0" id="361" type="passenger">
		<route edges="4057 3541"/>
	</vehicle>
	<vehicle depart="0.1" departLane="0" departPos="7.289788110948159" departSpeed="0.78210307" id="390" type="passenger">
		<route edges="3904 4058"/>
	</vehicle>
	<vehicle depart="0.1" departLane="0" departPos="18.680021707421126" departSpeed="1.5487409" id="3107" type="passenger">
		<route edges="3541 3595"/>
	</vehicle>
	<vehicle depart="0.1" departLane="0" departPos="9.191552229439003" departSpeed="0.78062599" id="3123" type="passenger">
		<route edges="3541 3595"/>
	</vehicle>
	<vehicle depart="0.1" departLane="0" departPos="6.433424486018861" departSpeed="0.48046785" id="3128" type="passenger">
		<route edges=":125_8 3541"/>
	</vehicle>
</routes>
