<routes>
	<vehicle depart="0.1" departLane="0" departPos="16.60138077791875" departSpeed="0.059956046" id="310" type="passenger">
		<route edges="5801 5798"/>
	</vehicle>
	<vehicle depart="0.1" departLane="0" departPos="6.935367644075252" departSpeed="0.22098618" id="352" type="passenger">
		<route edges=":136_2 5798"/>
	</vehicle>
	<vehicle depart="0.1" departLane="0" departPos="6.380811656616434" departSpeed="0.21750287" id="380" type="passenger">
		<route edges="5801 5798"/>
	</vehicle>
	<vehicle depart="0.1" departLane="0" departPos="2.5" departSpeed="11.384469" id="389" type="passenger">
		<route edges="6240 5755"/>
	</vehicle>
</routes>
