<!-- generated on 2020-12-18 16:26:04.133408 by ipykernel_launcher.py v1_2_0+5214-53edc58fcd
-->
<connections>
	<connection contPos="-4.0" from="36" fromLane="0" keepClear="true" to="55" toLane="0"/>
	<connection contPos="-4.0" from="38" fromLane="0" keepClear="true" to="64" toLane="0"/>
	<connection contPos="-4.0" from="38" fromLane="0" keepClear="true" to="62" toLane="0"/>
	<connection contPos="-4.0" from="39" fromLane="0" keepClear="true" to="59" toLane="0"/>
	<connection contPos="-4.0" from="41" fromLane="0" keepClear="true" to="51" toLane="0"/>
	<connection contPos="-4.0" from="41" fromLane="0" keepClear="true" to="52" toLane="0"/>
	<connection contPos="-4.0" from="42" fromLane="0" keepClear="true" to="57" toLane="0"/>
	<connection contPos="-4.0" from="42" fromLane="0" keepClear="true" to="53" toLane="0"/>
	<connection contPos="-4.0" from="43" fromLane="0" keepClear="true" to="58" toLane="0"/>
	<connection contPos="-4.0" from="43" fromLane="0" keepClear="true" to="50" toLane="0"/>
	<connection contPos="-4.0" from="44" fromLane="0" keepClear="true" to="54" toLane="0"/>
	<connection contPos="-4.0" from="44" fromLane="0" keepClear="true" to="49" toLane="0"/>
	<connection contPos="-4.0" from="46" fromLane="0" keepClear="true" to="63" toLane="0"/>
	<connection contPos="-4.0" from="46" fromLane="0" keepClear="true" to="61" toLane="0"/>
	<connection contPos="-4.0" from="48" fromLane="0" keepClear="true" to="56" toLane="0"/>
	<connection contPos="-4.0" from="48" fromLane="0" keepClear="true" to="60" toLane="0"/>
	<connection contPos="-4.0" from="49" fromLane="0" keepClear="true" to="40" toLane="0"/>
	<connection contPos="-4.0" from="50" fromLane="0" keepClear="true" to="39" toLane="0"/>
	<connection contPos="-4.0" from="51" fromLane="0" keepClear="true" to="45" toLane="0"/>
	<connection contPos="-4.0" from="52" fromLane="0" keepClear="true" to="43" toLane="0"/>
	<connection contPos="-4.0" from="53" fromLane="0" keepClear="true" to="45" toLane="0"/>
	<connection contPos="-4.0" from="54" fromLane="0" keepClear="true" to="43" toLane="0"/>
	<connection contPos="-4.0" from="55" fromLane="0" keepClear="true" to="38" toLane="0"/>
	<connection contPos="-4.0" from="56" fromLane="0" keepClear="true" to="39" toLane="0"/>
	<connection contPos="-4.0" from="57" fromLane="0" keepClear="true" to="40" toLane="0"/>
	<connection contPos="-4.0" from="58" fromLane="0" keepClear="true" to="47" toLane="0"/>
	<connection contPos="-4.0" from="59" fromLane="0" keepClear="true" to="37" toLane="0"/>
	<connection contPos="-4.0" from="60" fromLane="0" keepClear="true" to="42" toLane="0"/>
	<connection contPos="-4.0" from="61" fromLane="0" keepClear="true" to="37" toLane="0"/>
	<connection contPos="-4.0" from="62" fromLane="0" keepClear="true" to="47" toLane="0"/>
	<connection contPos="-4.0" from="63" fromLane="0" keepClear="true" to="38" toLane="0"/>
	<connection contPos="-4.0" from="64" fromLane="0" keepClear="true" to="42" toLane="0"/>
</connections>
