<routes>
	<vehicle depart="0.1" departLane="0" departPos="0" departSpeed="2.5614" id="31" type="passenger">
		<route edges="47"/>
	</vehicle>
	<vehicle depart="0.1" departLane="0" departPos="0" departSpeed="4.2913" id="33" type="passenger">
		<route edges="60 42 53 45"/>
	</vehicle>
	<vehicle depart="0.1" departLane="0" departPos="28.951692608127438" departSpeed="2.8088" id="34" type="passenger">
		<route edges="48 60 42 57 40"/>
	</vehicle>
	<vehicle depart="0.1" departLane="0" departPos="76.96319807195266" departSpeed="6.8404" id="35" type="passenger">
		<route edges="46 63 59 39 38 62 64 42 57 40"/>
	</vehicle>
	<vehicle depart="0.1" departLane="0" departPos="25.864320430721396" departSpeed="7.2715" id="65" type="passenger">
		<route edges="41 52 43 50 39 59 37"/>
	</vehicle>
	<vehicle depart="0.1" departLane="0" departPos="0" departSpeed="6.1145" id="66" type="passenger">
		<route edges="46 63 59 39 38 62 64 42 57 40"/>
	</vehicle>
</routes>
