<!-- generated on 2020-12-18 16:26:03.942843 by ipykernel_launcher.py v1_2_0+5214-53edc58fcd
-->
<edges>
	<edge from="1" function="normal" id="36" length="21.80601423971642" numLanes="1" priority="1" speed="36.11111111111111" spreadType="center" to="2">
		<lane allow="moped bicycle pedestrian custom1 trailer evehicle rail_urban ship private truck vip custom2 authority delivery rail_electric taxi tram army hov coach motorcycle passenger bus rail emergency" index="0" length="21.80601423971642" shape="-15.796700000000001,72.4075 -14.28875,61.6105 -12.78045,50.811099999999996" speed="36.11111111111111" width="2.499931689066722"/>
	</edge>
	<edge from="3" function="normal" id="37" length="21.801050684641165" numLanes="1" priority="1" speed="36.11111111111111" spreadType="center" to="4">
		<lane allow="moped bicycle pedestrian custom1 trailer evehicle rail_urban ship private truck vip custom2 authority delivery rail_electric taxi tram army hov coach motorcycle passenger bus rail emergency" index="0" length="21.801050684641165" shape="-10.305250000000001,51.16175 -11.8128,61.9564 -13.3207,72.75325000000001" speed="36.11111111111111" width="2.499776890044389"/>
	</edge>
	<edge from="5" function="normal" id="38" length="7.541913336914421" numLanes="1" priority="1" speed="36.11111111111111" spreadType="center" to="6">
		<lane allow="moped bicycle pedestrian custom1 trailer evehicle rail_urban ship private truck vip custom2 authority delivery rail_electric taxi tram army hov coach motorcycle passenger bus rail emergency" index="0" length="7.541913336914421" shape="-11.00305,38.0112 -10.492750000000001,34.2635 -9.9851,30.5383" speed="36.11111111111111" width="2.499821243609229"/>
	</edge>
	<edge from="7" function="normal" id="39" length="7.533083737779156" numLanes="1" priority="1" speed="36.11111111111111" spreadType="center" to="8">
		<lane allow="moped bicycle pedestrian custom1 trailer evehicle rail_urban ship private truck vip custom2 authority delivery rail_electric taxi tram army hov coach motorcycle passenger bus rail emergency" index="0" length="7.533083737779156" shape="-7.5092,30.881300000000003 -8.01675,34.6087 -8.5256,38.3455" speed="36.11111111111111" width="2.4991383555137547"/>
	</edge>
	<edge from="9" function="normal" id="40" length="32.0766373937235" numLanes="1" priority="1" speed="36.11111111111111" spreadType="center" to="10">
		<lane allow="moped bicycle pedestrian custom1 trailer evehicle rail_urban ship private truck vip custom2 authority delivery rail_electric taxi tram army hov coach motorcycle passenger bus rail emergency" index="0" length="32.0766373937235" shape="2.8346999999999998,-38.87905 5.84085,-54.6331 8.84695,-70.3872" speed="36.11111111111111" width="2.4993625527321957"/>
	</edge>
	<edge from="11" function="normal" id="41" length="32.05560850323572" numLanes="1" priority="1" speed="36.11111111111111" spreadType="center" to="12">
		<lane allow="moped bicycle pedestrian custom1 trailer evehicle rail_urban ship private truck vip custom2 authority delivery rail_electric taxi tram army hov coach motorcycle passenger bus rail emergency" index="0" length="32.05560850323572" shape="11.30265,-69.9186 8.29655,-54.164500000000004 5.29385,-38.431200000000004" speed="36.11111111111111" width="2.5000096899812214"/>
	</edge>
	<edge from="13" function="normal" id="42" length="41.343391463411386" numLanes="1" priority="1" speed="36.11111111111111" spreadType="center" to="14">
		<lane allow="moped bicycle pedestrian custom1 trailer evehicle rail_urban ship private truck vip custom2 authority delivery rail_electric taxi tram army hov coach motorcycle passenger bus rail emergency" index="0" length="41.343391463411386" shape="-7.3607499999999995,16.1895 -3.6210999999999998,-4.12675 0.12445000000000006,-24.47065" speed="36.11111111111111" width="2.4990243736306375"/>
	</edge>
	<edge from="15" function="normal" id="43" length="41.34262669955159" numLanes="1" priority="1" speed="36.11111111111111" spreadType="center" to="16">
		<lane allow="moped bicycle pedestrian custom1 trailer evehicle rail_urban ship private truck vip custom2 authority delivery rail_electric taxi tram army hov coach motorcycle passenger bus rail emergency" index="0" length="41.34262669955159" shape="2.5774500000000002,-23.9914 -1.16245,-3.6738999999999997 -4.9076,16.668" speed="36.11111111111111" width="2.499045577815658"/>
	</edge>
	<edge from="17" function="normal" id="44" length="14.228493344315059" numLanes="1" priority="1" speed="36.11111111111111" spreadType="center" to="18">
		<lane allow="moped bicycle pedestrian custom1 trailer evehicle rail_urban ship private vip custom2 authority delivery rail_electric taxi tram army hov coach motorcycle passenger rail emergency" index="0" length="14.228493344315059" shape="24.11605,-30.19715 23.74015,-29.76965 23.301099999999998,-29.40865 22.803449999999998,-29.1344 21.697,-28.883699999999997 19.4176,-28.825000000000003 15.43845,-29.147750000000002 10.3269,-29.3548" speed="36.11111111111111" width="2.4995111362024383"/>
	</edge>
	<edge from="19" function="normal" id="45" length="12.08382001687234" numLanes="1" priority="1" speed="36.11111111111111" spreadType="center" to="20">
		<lane allow="moped bicycle pedestrian custom1 trailer evehicle rail_urban ship private vip custom2 authority delivery rail_electric taxi tram army hov coach motorcycle passenger rail emergency" index="0" length="12.08382001687234" shape="10.3994,-31.852899999999998 15.135349999999999,-31.677100000000003 18.79555,-31.36815 20.77835,-31.34865 21.65815,-31.466050000000003 21.9688,-31.5555 21.936300000000003,-31.5073 22.2171,-31.81895" speed="36.11111111111111" width="2.495074678241113"/>
	</edge>
	<edge from="21" function="normal" id="46" length="76.96319807195266" numLanes="1" priority="1" speed="36.11111111111111" spreadType="center" to="22">
		<lane allow="moped bicycle pedestrian custom1 trailer evehicle rail_urban ship private truck vip custom2 authority delivery rail_electric taxi tram army hov coach motorcycle passenger bus rail emergency" index="0" length="76.96319807195266" shape="71.06365,62.84739999999999 33.51495,54.4256 -4.033799999999999,46.0038" speed="36.11111111111111" width="2.4954404581155587"/>
	</edge>
	<edge from="23" function="normal" id="47" length="41.11554801566557" numLanes="1" priority="1" speed="36.11111111111111" spreadType="center" to="24">
		<lane allow="moped bicycle pedestrian custom1 trailer evehicle rail_urban ship private vip custom2 authority delivery rail_electric taxi tram army hov coach motorcycle passenger rail emergency" index="0" length="41.11554801566557" shape="-15.1227,23.8086 -17.6573,23.549100000000003 -25.834,22.61175 -30.38795,21.782 -34.36295,20.7209 -37.7461,19.490450000000003 -38.68715,19.075000000000003 -39.94965,18.19375 -41.10425,17.1702 -42.43755,16.40065 -45.2849,15.212900000000001 -54.1271,12.4679" speed="36.11111111111111" width="2.4994898999595883"/>
	</edge>
	<edge from="25" function="normal" id="48" length="40.58453784489268" numLanes="1" priority="1" speed="36.11111111111111" spreadType="center" to="26">
		<lane allow="moped bicycle pedestrian custom1 trailer evehicle rail_urban ship private vip custom2 authority delivery rail_electric taxi tram army hov coach motorcycle passenger rail emergency" index="0" length="40.58453784489268" shape="-53.349000000000004,10.092400000000001 -44.5167,12.83375 -41.582449999999994,14.04005 -40.07765,14.8538 -38.7352,15.922600000000001 -37.6987,16.7457 -36.9806,17.101 -33.7197,18.303199999999997 -29.87735,19.33555 -25.4451,20.14275 -17.37225,21.065150000000003 -14.8575,21.32375" speed="36.11111111111111" width="2.499351101786223"/>
	</edge>
	<edge from="18" function="normal" id="49" length="14.478487337584522" numLanes="1" priority="1" speed="36.11111111111111" spreadType="center" to="9">
		<lane allow="moped bicycle pedestrian custom1 trailer evehicle rail_urban ship private vip custom2 authority delivery rail_electric taxi tram army hov coach motorcycle passenger rail emergency" index="0" length="14.478487337584522" shape="10.3269,-29.3548 8.70435,-29.47615 7.12725,-29.79475 5.6318,-30.3825 4.326,-31.31295 3.3521,-32.5844 2.7817,-34.0835 2.56525,-35.676249999999996 2.60865,-37.2848 2.8346999999999998,-38.87905" speed="36.11111111111111" width="2.4993625527321957"/>
	</edge>
	<edge from="16" function="normal" id="50" length="14.450284937441428" numLanes="1" priority="1" speed="36.11111111111111" spreadType="center" to="7">
		<lane allow="moped bicycle pedestrian custom1 trailer evehicle rail_urban ship private vip custom2 authority delivery rail_electric taxi tram army hov coach motorcycle passenger rail emergency" index="0" length="14.450284937441428" shape="-4.9076,16.668 -7.165100000000001,28.6878 -7.5092,30.881300000000003" speed="36.11111111111111" width="2.499045577815658"/>
	</edge>
	<edge from="12" function="normal" id="51" length="10.08156385043168" numLanes="1" priority="1" speed="36.11111111111111" spreadType="center" to="19">
		<lane allow="moped bicycle pedestrian custom1 trailer evehicle rail_urban ship private vip custom2 authority delivery rail_electric taxi tram army hov coach motorcycle passenger rail emergency" index="0" length="10.08156385043168" shape="5.29385,-38.431200000000004 5.11585,-37.19455 5.07805,-36.011250000000004 5.21935,-34.9049 5.57335,-33.936499999999995 6.1688,-33.150099999999995 6.9963999999999995,-32.5657 8.01415,-32.172 9.160499999999999,-31.9438 10.3994,-31.852899999999998" speed="36.11111111111111" width="2.4997190882177116"/>
	</edge>
	<edge from="12" function="normal" id="52" length="14.693081853060935" numLanes="1" priority="1" speed="36.11111111111111" spreadType="center" to="15">
		<lane allow="moped bicycle pedestrian custom1 trailer evehicle rail_urban ship private truck vip custom2 authority delivery rail_electric taxi tram army hov coach motorcycle passenger bus rail emergency" index="0" length="14.693081853060935" shape="5.29385,-38.431200000000004 3.9367,-31.21375 2.5774500000000002,-23.9914" speed="36.11111111111111" width="2.4999653937604815"/>
	</edge>
	<edge from="14" function="normal" id="53" length="14.021662674198057" numLanes="1" priority="1" speed="36.11111111111111" spreadType="center" to="19">
		<lane allow="moped bicycle pedestrian custom1 trailer evehicle rail_urban ship private vip custom2 authority delivery rail_electric taxi tram army hov coach motorcycle passenger rail emergency" index="0" length="14.021662674198057" shape="0.12445000000000006,-24.47065 0.4573499999999999,-25.830750000000002 0.96025,-27.1369 1.6593,-28.3485 2.5641499999999997,-29.414250000000003 3.6536,-30.29025 4.88485,-30.95365 6.20615,-31.414250000000003 7.5771,-31.6978 8.9707,-31.8348 10.3994,-31.852899999999998" speed="36.11111111111111" width="2.4990243736306375"/>
	</edge>
	<edge from="18" function="normal" id="54" length="10.476817105913444" numLanes="1" priority="1" speed="36.11111111111111" spreadType="center" to="15">
		<lane allow="moped bicycle pedestrian custom1 trailer evehicle rail_urban ship private vip custom2 authority delivery rail_electric taxi tram army hov coach motorcycle passenger rail emergency" index="0" length="10.476817105913444" shape="10.3269,-29.3548 9.184349999999998,-29.3412 8.084,-29.238 7.026999999999999,-29.027 6.0390999999999995,-28.695349999999998 5.14335,-28.2286 4.3678,-27.625500000000002 3.7211,-26.881700000000002 3.2124,-26.0198 2.8359,-25.05245 2.5774500000000002,-23.9914" speed="36.11111111111111" width="2.4995111362024383"/>
	</edge>
	<edge from="2" function="normal" id="55" length="12.922716076309861" numLanes="1" priority="1" speed="36.11111111111111" spreadType="center" to="5">
		<lane allow="moped bicycle pedestrian custom1 trailer evehicle rail_urban ship private truck vip custom2 authority delivery rail_electric taxi tram army hov coach motorcycle passenger bus rail emergency" index="0" length="12.922716076309861" shape="-12.78045,50.811099999999996 -11.89175,44.410650000000004 -11.00305,38.0112" speed="36.11111111111111" width="2.499821243609229"/>
	</edge>
	<edge from="26" function="normal" id="56" length="13.942106813009643" numLanes="1" priority="1" speed="36.11111111111111" spreadType="center" to="7">
		<lane allow="moped bicycle pedestrian custom1 trailer evehicle rail_urban ship private vip custom2 authority delivery rail_electric taxi tram army hov coach motorcycle passenger rail emergency" index="0" length="13.942106813009643" shape="-14.8575,21.32375 -13.30385,21.56955 -11.81605,21.9981 -10.421,22.666 -9.2055,23.619 -8.27185,24.84795 -7.67585,26.27315 -7.3945,27.7942 -7.36115,29.3422 -7.5092,30.881300000000003" speed="36.11111111111111" width="2.4991383555137547"/>
	</edge>
	<edge from="14" function="normal" id="57" length="14.661086099737023" numLanes="1" priority="1" speed="36.11111111111111" spreadType="center" to="9">
		<lane allow="moped bicycle pedestrian custom1 trailer evehicle rail_urban ship private truck vip custom2 authority delivery rail_electric taxi tram army hov coach motorcycle passenger bus rail emergency" index="0" length="14.661086099737023" shape="0.12445000000000006,-24.47065 1.4796500000000001,-31.67535 2.8346999999999998,-38.87905" speed="36.11111111111111" width="2.4990243736306375"/>
	</edge>
	<edge from="16" function="normal" id="58" length="14.042617053143406" numLanes="1" priority="1" speed="36.11111111111111" spreadType="center" to="23">
		<lane allow="moped bicycle pedestrian custom1 trailer evehicle rail_urban ship private vip custom2 authority delivery rail_electric taxi tram army hov coach motorcycle passenger rail emergency" index="0" length="14.042617053143406" shape="-4.9076,16.668 -5.27935,18.18345 -5.846,19.634500000000003 -6.64985,20.967399999999998 -7.70995,22.106250000000003 -9.00415,22.97025 -10.456,23.531750000000002 -11.98555,23.8255 -13.54205,23.902099999999997 -15.1227,23.8086" speed="36.11111111111111" width="2.499045577815658"/>
	</edge>
	<edge from="8" function="normal" id="59" length="12.939220153901896" numLanes="1" priority="1" speed="36.11111111111111" spreadType="center" to="3">
		<lane allow="moped bicycle pedestrian custom1 trailer evehicle rail_urban ship private truck vip custom2 authority delivery rail_electric taxi tram army hov coach motorcycle passenger bus rail emergency" index="0" length="12.939220153901896" shape="-8.5256,38.3455 -9.415500000000002,44.75445 -10.305250000000001,51.16175" speed="36.11111111111111" width="2.499776890044389"/>
	</edge>
	<edge from="26" function="normal" id="60" length="10.294178756498418" numLanes="1" priority="1" speed="36.11111111111111" spreadType="center" to="13">
		<lane allow="moped bicycle pedestrian custom1 trailer evehicle rail_urban ship private vip custom2 authority delivery rail_electric taxi tram army hov coach motorcycle passenger rail emergency" index="0" length="10.294178756498418" shape="-14.8575,21.32375 -13.61285,21.39895 -12.42075,21.3456 -11.29035,21.1363 -10.261949999999999,20.75105 -9.3726,20.169400000000003 -8.641449999999999,19.392049999999998 -8.0684,18.4471 -7.6484499999999995,17.3717 -7.3607499999999995,16.1895" speed="36.11111111111111" width="2.499351101786223"/>
	</edge>
	<edge from="22" function="normal" id="61" length="9.468372977963352" numLanes="1" priority="1" speed="36.11111111111111" spreadType="center" to="3">
		<lane allow="moped bicycle pedestrian custom1 trailer evehicle rail_urban ship private vip custom2 authority delivery rail_electric taxi tram army hov coach motorcycle passenger rail emergency" index="0" length="9.468372977963352" shape="-4.033799999999999,46.0038 -5.28425,45.8249 -6.5436499999999995,45.8945 -7.1547,46.0539 -7.7313,46.311350000000004 -8.2558,46.6632 -9.1025,47.5955 -9.688300000000002,48.7134 -10.20215,50.53605 -10.305250000000001,51.16175" speed="36.11111111111111" width="2.4954404581155587"/>
	</edge>
	<edge from="6" function="normal" id="62" length="9.878459150342088" numLanes="1" priority="1" speed="36.11111111111111" spreadType="center" to="23">
		<lane allow="moped bicycle pedestrian custom1 trailer evehicle rail_urban ship private vip custom2 authority delivery rail_electric taxi tram army hov coach motorcycle passenger rail emergency" index="0" length="9.878459150342088" shape="-9.9851,30.5383 -9.86765,29.3428 -9.8872,28.20135 -10.0789,27.13365 -10.46705,26.186 -11.0681,25.3913 -11.87235,24.76605 -12.844850000000001,24.30615 -13.9381,23.9946 -15.1227,23.8086" speed="36.11111111111111" width="2.4994898999595883"/>
	</edge>
	<edge from="22" function="normal" id="63" length="11.884966893348716" numLanes="1" priority="1" speed="36.11111111111111" spreadType="center" to="5">
		<lane allow="moped bicycle pedestrian custom1 trailer evehicle rail_urban ship private vip custom2 authority delivery rail_electric taxi tram army hov coach motorcycle passenger rail emergency" index="0" length="11.884966893348716" shape="-4.033799999999999,46.0038 -6.31485,45.32605 -7.9254500000000005,44.55865 -9.34915,43.4868 -10.11215,42.57515 -10.667300000000001,41.5246 -10.987100000000002,40.3798 -11.065,38.59985 -11.00305,38.0112" speed="36.11111111111111" width="2.4954404581155587"/>
	</edge>
	<edge from="6" function="normal" id="64" length="14.587700752035667" numLanes="1" priority="1" speed="36.11111111111111" spreadType="center" to="13">
		<lane allow="moped bicycle pedestrian custom1 trailer evehicle rail_urban ship private vip custom2 authority delivery rail_electric taxi tram army hov coach motorcycle passenger rail emergency" index="0" length="14.587700752035667" shape="-9.9851,30.5383 -9.63245,28.2864 -7.3607499999999995,16.1895" speed="36.11111111111111" width="2.49965781058128"/>
	</edge>
</edges>
