<routes>
	<vehicle depart="0.1" departLane="0" departPos="14.39302020762695" departSpeed="6.5909715" id="350" type="bus">
		<route edges=":62_2 4707 4704 4586"/>
	</vehicle>
	<vehicle depart="0.1" departLane="0" departPos="23.82836555233104" departSpeed="6.2340937" id="38" type="passenger">
		<route edges=":64_1 4704 4586"/>
	</vehicle>
	<vehicle depart="0.1" departLane="0" departPos="34.11243362222072" departSpeed="0.85874194" id="314" type="passenger">
		<route edges=":61_3 4705 4708"/>
	</vehicle>
	<vehicle depart="0.1" departLane="0" departPos="6.733531084811782" departSpeed="0.49858465" id="321" type="passenger">
		<route edges=":61_0 4705"/>
	</vehicle>
	<vehicle depart="0.1" departLane="0" departPos="137.40059211065392" departSpeed="0.0" id="322" type="passenger">
		<route edges="4654 4708"/>
	</vehicle>
	<vehicle depart="0.1" departLane="0" departPos="62.79870592694983" departSpeed="1.6632474" id="323" type="passenger">
		<route edges="4589 4586"/>
	</vehicle>
	<vehicle depart="0.1" departLane="0" departPos="5.785367298999333" departSpeed="3.9086824" id="324" type="passenger">
		<route edges=":64_4 4704"/>
	</vehicle>
	<vehicle depart="0.1" departLane="0" departPos="40.886297121591035" departSpeed="3.238275" id="327" type="passenger">
		<route edges="4589 4586"/>
	</vehicle>
	<vehicle depart="0.1" departLane="0" departPos="129.86442202314407" departSpeed="0.037518804" id="328" type="passenger">
		<route edges="4654 4704"/>
	</vehicle>
	<vehicle depart="0.1" departLane="0" departPos="31.153175430725128" departSpeed="1.3064389" id="329" type="truck">
		<route edges=":64_5 4655 4621"/>
	</vehicle>
</routes>
