<!-- generated on 2020-12-18 16:01:24.092350 by ipykernel_launcher.py v1_2_0+5214-53edc58fcd
-->
<nodes>
	<node id="1" type="from" x="14.204939999999999" y="17.821199999999997"/>
	<node id="2" type="to" x="10.737950000000001" y="10.83576"/>
	<node id="3" type="to" x="5.563791666666667" y="3.9201833333333336"/>
	<node id="4" type="to" x="-5.432424999999999" y="-18.175791666666665"/>
	<node id="5" type="to" x="13.770425" y="-58.0689"/>
	<node id="6" type="to" x="26.607416666666666" y="-66.40198333333333"/>
	<node id="7" type="to" x="-12.7645" y="-29.697733333333332"/>
	<node id="8" type="to" x="-20.0908" y="-44.59191666666666"/>
	<node id="9" type="to" x="-25.472700000000003" y="-55.53116666666667"/>
	<node id="10" type="to" x="-42.45523333333333" y="-94.05976666666668"/>
	<node id="11" type="to" x="-25.716" y="-19.84715"/>
	<node id="12" type="to" x="-46.42888333333334" y="-13.337633333333335"/>
	<node id="13" type="from" x="-51.49153333333334" y="-23.346016666666667"/>
	<node id="14" type="to" x="-31.167600000000004" y="-33.45106666666666"/>
	<node id="15" type="to" x="4.08565" y="-22.9772"/>
	<node id="16" type="to" x="17.7863" y="-2.1877833333333334"/>
	<node id="17" type="to" x="21.598983333333333" y="5.401533333333333"/>
	<node id="18" type="to" x="25.00193333333333" y="12.278416666666667"/>
	<node id="19" type="to" x="-22.823749999999997" y="-39.478049999999996"/>
	<node id="20" type="to" x="-0.716875" y="-50.862175"/>
	<node id="21" type="from" x="31.90965" y="-55.610425"/>
	<node id="22" type="to" x="21.529375" y="-50.5359"/>
	<node id="23" type="to" x="16.384566666666668" y="-46.0264"/>
	<node id="24" type="to" x="10.441316666666665" y="-43.09611666666666"/>
	<node id="25" type="to" x="3.7117750000000003" y="-41.665949999999995"/>
	<node id="26" type="to" x="-18.3756" y="-30.66005"/>
	<node id="27" type="from" x="-30.07566" y="-100.15954000000002"/>
	<node id="28" type="to" x="-11.462300000000003" y="-62.89806"/>
	<node id="29" type="to" x="-6.312816666666667" y="-51.82413333333333"/>
	<node id="30" type="to" x="1.0472" y="-36.44863333333333"/>
</nodes>
