<routes>
	<vehicle depart="0.1" departLane="1" departPos="0" departSpeed="0.0" id="1947" type="passenger">
		<route edges="3664 3495"/>
	</vehicle>
	<vehicle depart="0.1" departLane="2" departPos="25.26534813506891" departSpeed="10.6589" id="1949" type="passenger">
		<route edges="3542 3542"/>
	</vehicle>
	<vehicle depart="0.1" departLane="4" departPos="21.68481143836946" departSpeed="0.0" id="1955" type="passenger">
		<route edges="3450 3664 3495"/>
	</vehicle>
	<vehicle depart="0.1" departLane="4" departPos="15.207269378388265" departSpeed="0.0" id="1961" type="passenger">
		<route edges="3450 3664 3495"/>
	</vehicle>
	<vehicle depart="0.1" departLane="5" departPos="18.78234207204043" departSpeed="0.0" id="1962" type="passenger">
		<route edges="3450 3664 3495"/>
	</vehicle>
	<vehicle depart="0.1" departLane="5" departPos="13.545944960491171" departSpeed="0.0" id="1982" type="passenger">
		<route edges="3450 3664 3495"/>
	</vehicle>
	<vehicle depart="0.1" departLane="4" departPos="0" departSpeed="0.0" id="1986" type="passenger">
		<route edges="3450 3664 3495"/>
	</vehicle>
	<vehicle depart="0.1" departLane="0" departPos="0" departSpeed="0.0" id="1988" type="passenger">
		<route edges="3670 3640 3487"/>
	</vehicle>
	<vehicle depart="0.1" departLane="4" departPos="8.49330288595079" departSpeed="0.0" id="1990" type="passenger">
		<route edges="3438 3450 3664 3495"/>
	</vehicle>
	<vehicle depart="0.1" departLane="5" departPos="0" departSpeed="0.0" id="1993" type="passenger">
		<route edges="3450 3664 3495"/>
	</vehicle>
	<vehicle depart="0.1" departLane="1" departPos="23.437237299519683" departSpeed="8.6929" id="1995" type="passenger">
		<route edges="3456 3462 3470"/>
	</vehicle>
	<vehicle depart="0.1" departLane="3" departPos="22.074270935294333" departSpeed="0.0" id="1996" type="passenger">
		<route edges="3450 3610 3646 3626 3542"/>
	</vehicle>
	<vehicle depart="0.1" departLane="5" departPos="8.43889335532213" departSpeed="0.20117" id="1997" type="passenger">
		<route edges="3438 3450 3664 3495"/>
	</vehicle>
	<vehicle depart="0.1" departLane="3" departPos="0" departSpeed="0.0" id="1999" type="passenger">
		<route edges="3431 3438 3450 3664 3495"/>
	</vehicle>
	<vehicle depart="0.1" departLane="3" departPos="4.561250632782166" departSpeed="4.2184" id="2000" type="passenger">
		<route edges="3438 3450 3610 3646 3626 3542"/>
	</vehicle>
	<vehicle depart="0.1" departLane="0" departPos="0" departSpeed="0.0" id="11003" type="passenger">
		<route edges="3632 3652 3616 3456 3462 3470"/>
	</vehicle>
	<vehicle depart="0.1" departLane="2" departPos="19.626326854367257" departSpeed="1.0272" id="11006" type="passenger">
		<route edges="3450 3610 3646 3626 3542"/>
	</vehicle>
	<vehicle depart="0.1" departLane="1" departPos="41.56189728917717" departSpeed="0.0" id="11010" type="passenger">
		<route edges="3573 3680 3495"/>
	</vehicle>
	<vehicle depart="0.1" departLane="0" departPos="15.049189811727286" departSpeed="5.5535" id="11013" type="passenger">
		<route edges="3680 3495"/>
	</vehicle>
	<vehicle depart="0.1" departLane="0" departPos="0" departSpeed="0.0" id="11014" type="passenger">
		<route edges="3672 3456 3462 3470"/>
	</vehicle>
	<vehicle depart="0.1" departLane="2" departPos="41.65840591059532" departSpeed="1.271" id="11018" type="passenger">
		<route edges="3573 3632 3652 3616 3456 3462 3470"/>
	</vehicle>
	<vehicle depart="0.1" departLane="3" departPos="41.74398239742748" departSpeed="3.9563" id="11023" type="passenger">
		<route edges="3573 3632 3652 3616 3456 3462 3470"/>
	</vehicle>
	<vehicle depart="0.1" departLane="2" departPos="27.772982957839133" departSpeed="3.6332" id="11024" type="passenger">
		<route edges="3573 3632 3652 3616 3456 3462 3470"/>
	</vehicle>
	<vehicle depart="0.1" departLane="1" departPos="0" departSpeed="6.1204" id="11026" type="passenger">
		<route edges="3573 3680 3495"/>
	</vehicle>
	<vehicle depart="0.1" departLane="1" departPos="0" departSpeed="8.8301" id="11030" type="passenger">
		<route edges="3456 3462 3470"/>
	</vehicle>
	<vehicle depart="0.1" departLane="0" departPos="8.27792802286421" departSpeed="4.4867" id="11034" type="passenger">
		<route edges="3602 3616 3616 3456 3462 3470"/>
	</vehicle>
</routes>
