<?xml version="1.0" encoding="UTF-8"?>

<!-- generated on Fri Dec 18 16:01:24 2020 by Eclipse SUMO netconvert Version 1.8.0
<configuration xmlns:xsi="http://www.w3.org/2001/XMLSchema-instance" xsi:noNamespaceSchemaLocation="http://sumo.dlr.de/xsd/netconvertConfiguration.xsd">

    <input>
        <node-files value="./converted_scenarios/NGSIM/Lankershim/USA_Lanker-1_18_I-1-1/nodes.net.xml"/>
        <edge-files value="./converted_scenarios/NGSIM/Lankershim/USA_Lanker-1_18_I-1-1/edges.net.xml"/>
        <connection-files value="./converted_scenarios/NGSIM/Lankershim/USA_Lanker-1_18_I-1-1/_connections.net.xml"/>
        <tllogic-files value="./converted_scenarios/NGSIM/Lankershim/USA_Lanker-1_18_I-1-1/_tll.net.xml"/>
    </input>

    <output>
        <output-file value="./converted_scenarios/NGSIM/Lankershim/USA_Lanker-1_18_I-1-1/USA_Lanker-1_18_I-1-1.net.xml"/>
    </output>

    <processing>
        <plain.extend-edge-shape value="true"/>
        <geometry.remove.keep-edges.explicit value="true"/>
        <geometry.avoid-overlap value="true"/>
        <offset.disable-normalization value="true"/>
    </processing>

    <junctions>
        <no-turnarounds value="true"/>
        <junctions.internal-link-detail value="20"/>
    </junctions>

    <report>
        <aggregate-warnings value="5"/>
    </report>

    <random_number>
        <seed value="1234"/>
    </random_number>

</configuration>
-->

<net version="1.6" junctionCornerDetail="5" junctionLinkDetail="20" limitTurnSpeed="5.50" xmlns:xsi="http://www.w3.org/2001/XMLSchema-instance" xsi:noNamespaceSchemaLocation="http://sumo.dlr.de/xsd/net_file.xsd">

    <location netOffset="0.00,0.00" convBoundary="-51.49,-100.16,31.91,17.82" origBoundary="-52.89,-102.89,32.71,20.57" projParameter="!"/>

    <edge id=":11_0" function="internal">
        <lane id=":11_0_0" index="0" disallow="bus truck rail_fast" speed="36.11" length="8.30" width="4.58" shape="-32.83,-17.54 -24.97,-20.21"/>
    </edge>
    <edge id=":11_1" function="internal">
        <lane id=":11_1_0" index="0" disallow="rail_fast" speed="36.11" length="1.01" width="3.11" shape="-25.88,-25.06 -26.81,-24.64"/>
        <lane id=":11_1_1" index="1" disallow="rail_fast" speed="36.11" length="1.01" width="3.66" shape="-27.20,-28.21 -28.11,-27.78"/>
    </edge>
    <edge id=":14_0" function="internal">
        <lane id=":14_0_0" index="0" disallow="bus truck rail_fast" speed="7.94" length="13.70" width="3.23" shape="-34.23,-35.39 -33.01,-36.00 -31.86,-36.59 -30.78,-37.15 -29.77,-37.69 -28.83,-38.20 -27.95,-38.68 -27.15,-39.14 -26.42,-39.58 -25.75,-39.99 -25.16,-40.37 -24.63,-40.73 -24.18,-41.06 -23.79,-41.37 -23.48,-41.65 -23.23,-41.91 -23.06,-42.14 -22.95,-42.35 -22.91,-42.53 -22.94,-42.69"/>
    </edge>
    <edge id=":14_1" function="internal">
        <lane id=":14_1_0" index="0" disallow="rail_fast" speed="36.11" length="13.45" width="3.23" shape="-34.23,-35.39 -22.30,-41.56"/>
        <lane id=":14_1_1" index="1" disallow="bus rail_fast" speed="36.11" length="13.45" width="3.03" shape="-32.84,-32.59 -20.84,-38.69"/>
    </edge>
    <edge id=":14_3" function="internal">
        <lane id=":14_3_0" index="0" disallow="bus truck rail_fast" speed="36.11" length="2.11" width="2.92" shape="-31.49,-29.86 -33.38,-28.93"/>
    </edge>
    <edge id=":15_0" function="internal">
        <lane id=":15_0_0" index="0" disallow="bus truck rail_fast" speed="9.12" length="13.80" width="3.05" shape="9.24,-37.83 8.87,-37.40 8.55,-36.95 8.27,-36.46 8.04,-35.95 7.86,-35.41 7.72,-34.84 7.62,-34.24 7.57,-33.62 7.57,-32.97 7.61,-32.28 7.70,-31.57 7.83,-30.84 8.01,-30.07 8.24,-29.28 8.51,-28.45 8.82,-27.60 9.18,-26.72 9.59,-25.81 10.04,-24.88"/>
    </edge>
    <edge id=":15_1" function="internal">
        <lane id=":15_1_0" index="0" disallow="rail_fast" speed="36.11" length="13.06" width="3.05" shape="4.40,-36.61 10.04,-24.88"/>
        <lane id=":15_1_1" index="1" disallow="rail_fast" speed="36.11" length="13.06" width="2.91" shape="1.58,-35.25 7.23,-23.47"/>
        <lane id=":15_1_2" index="2" disallow="rail_fast" speed="36.11" length="13.06" width="2.89" shape="-1.14,-33.94 4.52,-22.12"/>
    </edge>
    <edge id=":15_4" function="internal">
        <lane id=":15_4_0" index="0" disallow="bus truck rail_fast" speed="36.11" length="13.55" width="2.89" shape="-2.00,-33.99 4.52,-22.12"/>
    </edge>
    <edge id=":16_0" function="internal">
        <lane id=":16_0_0" index="0" disallow="rail_fast" speed="36.11" length="0.24" width="3.05" shape="20.37,-3.62 20.48,-3.41"/>
        <lane id=":16_0_1" index="1" disallow="rail_fast" speed="36.11" length="0.24" width="2.91" shape="17.71,-2.29 17.81,-2.07"/>
        <lane id=":16_0_2" index="2" disallow="rail_fast" speed="36.11" length="0.24" width="2.89" shape="15.11,-0.99 15.22,-0.76"/>
    </edge>
    <edge id=":17_0" function="internal">
        <lane id=":17_0_0" index="0" disallow="rail_fast" speed="36.11" length="3.05" width="3.05" shape="23.59,2.66 24.97,5.39"/>
        <lane id=":17_0_1" index="1" disallow="rail_fast" speed="36.11" length="3.05" width="3.00" shape="20.87,4.02 22.23,6.75"/>
        <lane id=":17_0_2" index="2" disallow="rail_fast" speed="36.11" length="3.05" width="2.94" shape="18.23,5.34 19.57,8.07"/>
    </edge>
    <edge id=":19_0" function="internal">
        <lane id=":19_0_0" index="0" disallow="rail_fast" speed="36.11" length="0.12" width="3.31" shape="-22.13,-41.65 -22.23,-41.60"/>
        <lane id=":19_0_1" index="1" disallow="rail_fast" speed="36.11" length="0.12" width="3.11" shape="-20.66,-38.78 -20.76,-38.73"/>
    </edge>
    <edge id=":2_0" function="internal">
        <lane id=":2_0_0" index="0" disallow="rail_fast" speed="21.97" length="7.43" width="2.94" shape="6.49,15.91 6.23,15.41 6.00,14.97 5.77,14.57 5.57,14.21 5.36,13.89 5.17,13.60 4.98,13.34 4.78,13.10 4.59,12.87 4.38,12.65 4.17,12.43 3.94,12.21 3.70,11.99 3.44,11.75 3.15,11.50 2.84,11.22 2.50,10.91 2.12,10.57 1.71,10.19"/>
        <lane id=":2_0_1" index="1" disallow="rail_fast" speed="36.11" length="7.43" width="2.94" shape="6.49,15.91 3.18,9.35"/>
        <lane id=":2_0_2" index="2" disallow="rail_fast" speed="36.11" length="7.43" width="3.05" shape="9.16,14.56 5.82,7.85"/>
        <lane id=":2_0_3" index="3" disallow="rail_fast" speed="36.11" length="7.43" width="3.03" shape="11.89,13.19 8.48,6.35"/>
        <lane id=":2_0_4" index="4" disallow="rail_fast" speed="36.11" length="7.43" width="3.05" shape="14.61,11.81 11.14,4.84"/>
        <lane id=":2_0_5" index="5" disallow="rail_fast" speed="36.11" length="7.43" width="3.12" shape="17.36,10.42 14.37,4.36"/>
    </edge>
    <edge id=":20_0" function="internal">
        <lane id=":20_0_0" index="0" disallow="rail_fast" speed="36.11" length="3.06" width="3.50" shape="-2.86,-51.67 -0.12,-53.06"/>
        <lane id=":20_0_1" index="1" disallow="rail_fast" speed="36.11" length="3.06" width="3.31" shape="-1.34,-48.63 1.38,-50.00"/>
    </edge>
    <edge id=":22_0" function="internal">
        <lane id=":22_0_0" index="0" disallow="rail_fast" speed="14.45" length="8.28" width="3.25" shape="25.97,-50.68 25.42,-50.41 24.93,-50.17 24.49,-49.94 24.09,-49.73 23.73,-49.53 23.40,-49.34 23.10,-49.14 22.82,-48.95 22.56,-48.75 22.31,-48.54 22.07,-48.31 21.83,-48.07 21.59,-47.80 21.34,-47.51 21.08,-47.18 20.81,-46.83 20.51,-46.43 20.18,-45.99 19.82,-45.50"/>
        <lane id=":22_0_1" index="1" disallow="rail_fast" speed="36.11" length="8.28" width="3.60" shape="25.97,-50.68 18.73,-47.11"/>
        <lane id=":22_0_2" index="2" disallow="rail_fast" speed="36.11" length="8.28" width="3.67" shape="24.38,-53.95 16.67,-50.15"/>
    </edge>
    <edge id=":23_0" function="internal">
        <lane id=":23_0_0" index="0" disallow="rail_fast" speed="9.74" length="3.41" width="3.19" shape="18.49,-43.68 18.32,-43.47 18.17,-43.27 18.03,-43.11 17.89,-42.96 17.76,-42.84 17.63,-42.73 17.50,-42.63 17.38,-42.55 17.25,-42.47 17.11,-42.40 16.98,-42.34 16.83,-42.28 16.67,-42.22 16.51,-42.15 16.33,-42.08 16.14,-42.00 15.93,-41.91 15.70,-41.81 15.45,-41.69"/>
        <lane id=":23_0_1" index="1" disallow="rail_fast" speed="36.11" length="3.41" width="3.52" shape="17.01,-46.26 13.98,-44.75"/>
        <lane id=":23_0_2" index="2" disallow="rail_fast" speed="36.11" length="3.41" width="3.68" shape="15.20,-49.42 12.40,-48.02"/>
    </edge>
    <edge id=":24_0" function="internal">
        <lane id=":24_0_0" index="0" disallow="bus truck rail_fast" speed="14.27" length="3.68" width="2.93" shape="12.83,-40.43 12.58,-40.31 12.36,-40.20 12.16,-40.11 11.97,-40.02 11.80,-39.95 11.64,-39.87 11.50,-39.80 11.36,-39.73 11.23,-39.66 11.10,-39.58 10.98,-39.50 10.86,-39.41 10.73,-39.32 10.60,-39.21 10.46,-39.09 10.31,-38.95 10.16,-38.79 9.98,-38.62 9.80,-38.42"/>
    </edge>
    <edge id=":24_1" function="internal">
        <lane id=":24_1_0" index="0" disallow="rail_fast" speed="36.11" length="11.27" width="3.46" shape="11.38,-43.46 1.29,-38.47"/>
        <lane id=":24_1_1" index="1" disallow="rail_fast" speed="36.11" length="11.27" width="3.70" shape="9.82,-46.73 -0.27,-41.67"/>
    </edge>
    <edge id=":24_3" function="internal">
        <lane id=":24_3_0" index="0" disallow="bus truck rail_fast" speed="17.55" length="16.88" width="3.01" shape="9.82,-46.73 8.67,-46.17 7.59,-45.67 6.55,-45.23 5.56,-44.83 4.61,-44.49 3.70,-44.19 2.83,-43.94 1.99,-43.73 1.17,-43.56 0.37,-43.42 -0.40,-43.32 -1.16,-43.25 -1.92,-43.21 -2.66,-43.19 -3.41,-43.20 -4.15,-43.23 -4.90,-43.28 -5.67,-43.34 -6.44,-43.42"/>
    </edge>
    <edge id=":25_0" function="internal">
        <lane id=":25_0_0" index="0" disallow="rail_fast" speed="36.11" length="2.24" width="3.21" shape="1.11,-38.38 3.12,-39.38"/>
        <lane id=":25_0_1" index="1" disallow="rail_fast" speed="36.11" length="2.24" width="3.68" shape="-0.45,-41.58 1.55,-42.58"/>
    </edge>
    <edge id=":26_0" function="internal">
        <lane id=":26_0_0" index="0" disallow="rail_fast" speed="36.11" length="14.96" width="3.17" shape="-6.55,-34.59 -19.96,-27.96"/>
        <lane id=":26_0_1" index="1" disallow="rail_fast" speed="36.11" length="14.96" width="3.68" shape="-8.13,-37.73 -21.50,-31.04"/>
    </edge>
    <edge id=":26_2" function="internal">
        <lane id=":26_2_0" index="0" disallow="bus truck rail_fast" speed="11.28" length="15.17" width="3.68" shape="-12.66,-42.62 -12.82,-41.80 -13.01,-41.00 -13.24,-40.23 -13.50,-39.48 -13.80,-38.76 -14.13,-38.06 -14.50,-37.38 -14.89,-36.72 -15.32,-36.09 -15.79,-35.48 -16.29,-34.89 -16.82,-34.33 -17.39,-33.79 -17.99,-33.27 -18.62,-32.78 -19.29,-32.31 -19.99,-31.86 -20.73,-31.44 -21.50,-31.04"/>
    </edge>
    <edge id=":28_0" function="internal">
        <lane id=":28_0_0" index="0" disallow="bus truck rail_fast" speed="10.22" length="10.24" width="3.11" shape="-6.66,-67.69 -6.43,-67.29 -6.17,-66.90 -5.89,-66.52 -5.59,-66.16 -5.26,-65.81 -4.91,-65.47 -4.54,-65.14 -4.15,-64.83 -3.73,-64.53 -3.30,-64.24 -2.84,-63.97 -2.35,-63.71 -1.85,-63.46 -1.32,-63.23 -0.77,-63.01 -0.19,-62.80 0.40,-62.60 1.02,-62.42 1.66,-62.25"/>
    </edge>
    <edge id=":28_1" function="internal">
        <lane id=":28_1_0" index="0" disallow="bus truck rail_fast" speed="11.58" length="11.05" width="3.13" shape="-9.72,-66.08 -9.36,-65.37 -9.01,-64.73 -8.68,-64.17 -8.36,-63.66 -8.05,-63.21 -7.73,-62.80 -7.41,-62.45 -7.08,-62.13 -6.73,-61.84 -6.37,-61.58 -5.98,-61.34 -5.56,-61.11 -5.11,-60.89 -4.63,-60.68 -4.10,-60.46 -3.52,-60.23 -2.89,-59.98 -2.21,-59.71 -1.46,-59.41"/>
    </edge>
    <edge id=":28_2" function="internal">
        <lane id=":28_2_0" index="0" disallow="rail_fast" speed="36.11" length="10.45" width="3.12" shape="-9.72,-66.08 -5.15,-56.53"/>
        <lane id=":28_2_1" index="1" disallow="rail_fast" speed="36.11" length="10.45" width="3.06" shape="-12.45,-64.65 -7.95,-55.21"/>
        <lane id=":28_2_2" index="2" disallow="rail_fast" speed="36.11" length="10.45" width="2.98" shape="-15.15,-63.23 -10.69,-53.92"/>
    </edge>
    <edge id=":28_5" function="internal">
        <lane id=":28_5_0" index="0" disallow="bus truck rail_fast" speed="36.11" length="10.20" width="2.87" shape="-17.83,-61.82 -17.49,-61.13 -17.19,-60.51 -16.91,-59.95 -16.66,-59.45 -16.42,-58.98 -16.21,-58.55 -16.02,-58.15 -15.83,-57.76 -15.66,-57.39 -15.49,-57.02 -15.33,-56.64 -15.16,-56.25 -15.00,-55.84 -14.82,-55.40 -14.64,-54.92 -14.45,-54.40 -14.24,-53.82 -14.02,-53.18 -13.77,-52.47"/>
    </edge>
    <edge id=":29_0" function="internal">
        <lane id=":29_0_0" index="0" disallow="rail_fast" speed="36.11" length="3.22" width="3.12" shape="-4.27,-54.67 -2.89,-51.77"/>
        <lane id=":29_0_1" index="1" disallow="rail_fast" speed="36.11" length="3.22" width="3.06" shape="-7.03,-53.27 -5.64,-50.36"/>
        <lane id=":29_0_2" index="2" disallow="rail_fast" speed="36.11" length="3.22" width="2.95" shape="-9.72,-51.90 -8.33,-48.99"/>
    </edge>
    <edge id=":3_0" function="internal">
        <lane id=":3_0_0" index="0" disallow="rail_fast" speed="15.71" length="3.50" width="3.22" shape="1.33,9.83 1.12,9.64 0.93,9.48 0.75,9.34 0.58,9.22 0.42,9.11 0.27,9.01 0.13,8.92 -0.01,8.84 -0.14,8.75 -0.27,8.67 -0.39,8.58 -0.51,8.49 -0.63,8.38 -0.75,8.25 -0.86,8.11 -0.98,7.95 -1.10,7.77 -1.23,7.56 -1.36,7.31"/>
        <lane id=":3_0_1" index="1" disallow="rail_fast" speed="36.11" length="3.50" width="2.87" shape="2.99,8.97 1.47,5.95"/>
        <lane id=":3_0_2" index="2" disallow="rail_fast" speed="36.11" length="3.50" width="3.00" shape="5.69,7.58 4.22,4.62"/>
        <lane id=":3_0_3" index="3" disallow="rail_fast" speed="36.11" length="3.50" width="3.02" shape="8.40,6.18 6.95,3.28"/>
        <lane id=":3_0_4" index="4" disallow="rail_fast" speed="36.11" length="3.50" width="3.02" shape="11.09,4.75 9.67,1.90"/>
        <lane id=":3_0_5" index="5" disallow="rail_fast" speed="36.11" length="3.50" width="3.03" shape="14.28,4.18 12.45,0.48"/>
    </edge>
    <edge id=":30_0" function="internal">
        <lane id=":30_0_0" index="0" disallow="rail_fast" speed="36.11" length="2.64" width="3.14" shape="3.16,-39.18 4.31,-36.79"/>
        <lane id=":30_0_1" index="1" disallow="rail_fast" speed="36.11" length="2.64" width="3.10" shape="0.36,-37.82 1.50,-35.43"/>
        <lane id=":30_0_2" index="2" disallow="rail_fast" speed="36.11" length="2.64" width="2.93" shape="-2.37,-36.50 -1.23,-34.12"/>
    </edge>
    <edge id=":4_0" function="internal">
        <lane id=":4_0_0" index="0" disallow="bus truck rail_fast" speed="36.11" length="5.96" width="3.84" shape="-10.62,-11.10 -10.82,-11.50 -11.01,-11.86 -11.17,-12.18 -11.31,-12.48 -11.45,-12.75 -11.57,-13.00 -11.69,-13.23 -11.80,-13.45 -11.92,-13.66 -12.03,-13.86 -12.16,-14.07 -12.29,-14.28 -12.43,-14.49 -12.59,-14.72 -12.76,-14.96 -12.96,-15.22 -13.18,-15.51 -13.43,-15.82 -13.71,-16.17"/>
    </edge>
    <edge id=":4_1" function="internal">
        <lane id=":4_1_0" index="0" disallow="rail_fast" speed="36.11" length="6.33" width="2.87" shape="-7.66,-12.61 -10.51,-18.30"/>
        <lane id=":4_1_1" index="1" disallow="rail_fast" speed="36.11" length="6.33" width="3.02" shape="-5.01,-13.96 -7.86,-19.62"/>
        <lane id=":4_1_2" index="2" disallow="rail_fast" speed="36.11" length="6.33" width="3.12" shape="-2.28,-15.36 -5.08,-20.99"/>
    </edge>
    <edge id=":4_4" function="internal">
        <lane id=":4_4_0" index="0" disallow="bus truck rail_fast" speed="36.11" length="6.26" width="2.93" shape="0.46,-16.75 -2.34,-22.35"/>
    </edge>
    <edge id=":4_5" function="internal">
        <lane id=":4_5_0" index="0" disallow="bus truck rail_fast" speed="36.11" length="6.22" width="3.03" shape="3.18,-18.14 0.40,-23.71"/>
    </edge>
    <edge id=":5_0" function="internal">
        <lane id=":5_0_0" index="0" disallow="bus truck rail_fast" speed="10.83" length="9.96" width="3.88" shape="2.52,-62.04 3.15,-61.88 3.74,-61.74 4.27,-61.62 4.76,-61.51 5.22,-61.43 5.64,-61.37 6.04,-61.33 6.42,-61.31 6.79,-61.32 7.16,-61.35 7.52,-61.40 7.89,-61.48 8.28,-61.59 8.68,-61.73 9.11,-61.89 9.57,-62.09 10.06,-62.31 10.61,-62.57 11.20,-62.85"/>
        <lane id=":5_0_1" index="1" disallow="bus truck rail_fast" speed="12.01" length="9.96" width="3.51" shape="2.39,-58.48 3.16,-58.30 3.86,-58.14 4.51,-58.00 5.10,-57.88 5.65,-57.79 6.16,-57.72 6.64,-57.67 7.10,-57.66 7.54,-57.67 7.98,-57.71 8.42,-57.78 8.86,-57.88 9.32,-58.01 9.81,-58.17 10.32,-58.37 10.87,-58.61 11.47,-58.88 12.12,-59.19 12.83,-59.53"/>
    </edge>
    <edge id=":5_2" function="internal">
        <lane id=":5_2_0" index="0" disallow="bus truck rail_fast" speed="36.11" length="10.89" width="3.51" shape="3.17,-54.43 12.83,-59.53"/>
        <lane id=":5_2_1" index="1" disallow="bus truck rail_fast" speed="36.11" length="10.89" width="3.38" shape="4.92,-51.11 5.58,-51.58 6.18,-52.00 6.72,-52.37 7.22,-52.71 7.68,-53.01 8.11,-53.27 8.51,-53.52 8.90,-53.74 9.28,-53.95 9.66,-54.16 10.05,-54.35 10.45,-54.55 10.87,-54.76 11.33,-54.98 11.83,-55.21 12.37,-55.47 12.97,-55.76 13.63,-56.08 14.36,-56.43"/>
    </edge>
    <edge id=":5_4" function="internal">
        <lane id=":5_4_0" index="0" disallow="rail_fast" speed="36.11" length="13.99" width="3.51" shape="0.31,-53.28 12.83,-59.53"/>
        <lane id=":5_4_1" index="1" disallow="rail_fast" speed="36.11" length="13.99" width="3.38" shape="1.83,-50.22 14.36,-56.43"/>
    </edge>
    <edge id=":7_0" function="internal">
        <lane id=":7_0_0" index="0" disallow="rail_fast" speed="36.11" length="3.02" width="3.06" shape="-14.82,-26.99 -16.17,-29.70"/>
        <lane id=":7_0_1" index="1" disallow="rail_fast" speed="36.11" length="3.02" width="2.99" shape="-12.11,-28.33 -13.43,-31.04"/>
        <lane id=":7_0_2" index="2" disallow="rail_fast" speed="36.11" length="3.02" width="3.06" shape="-9.35,-29.68 -10.68,-32.39"/>
    </edge>
    <edge id=":8_0" function="internal">
        <lane id=":8_0_0" index="0" disallow="rail_fast" speed="36.11" length="0.10" width="3.29" shape="-22.14,-41.75 -22.16,-41.78"/>
        <lane id=":8_0_1" index="1" disallow="rail_fast" speed="36.11" length="0.10" width="2.97" shape="-19.36,-43.18 -19.37,-43.21"/>
        <lane id=":8_0_2" index="2" disallow="rail_fast" speed="36.11" length="0.10" width="3.01" shape="-16.67,-44.57 -16.68,-44.60"/>
    </edge>
    <edge id=":9_0" function="internal">
        <lane id=":9_0_0" index="0" disallow="bus rail_fast" speed="36.11" length="15.32" width="2.85" shape="-22.25,-41.96 -29.04,-55.69"/>
        <lane id=":9_0_1" index="1" disallow="rail_fast" speed="36.11" length="15.32" width="2.97" shape="-19.46,-43.39 -26.19,-57.15"/>
        <lane id=":9_0_2" index="2" disallow="rail_fast" speed="36.11" length="15.32" width="2.96" shape="-16.77,-44.78 -23.52,-58.52"/>
    </edge>
    <edge id=":9_3" function="internal">
        <lane id=":9_3_0" index="0" disallow="bus truck rail_fast" speed="14.99" length="18.43" width="2.96" shape="-12.24,-44.47 -12.95,-44.80 -13.63,-45.15 -14.29,-45.55 -14.93,-45.99 -15.54,-46.47 -16.14,-46.99 -16.72,-47.56 -17.29,-48.17 -17.85,-48.83 -18.41,-49.55 -18.96,-50.31 -19.50,-51.13 -20.05,-52.01 -20.60,-52.94 -21.16,-53.93 -21.73,-54.98 -22.31,-56.10 -22.91,-57.28 -23.52,-58.52"/>
    </edge>
    <edge id=":9_4" function="internal">
        <lane id=":9_4_0" index="0" disallow="bus truck rail_fast" speed="36.11" length="14.16" width="2.85" shape="-23.03,-42.87 -29.04,-55.69"/>
    </edge>

    <edge id="3431" from="1" to="2" priority="1" spreadType="center" length="7.75">
        <lane id="3431_0" index="0" disallow="rail_fast" speed="36.11" length="7.75" width="2.84" customShape="1" shape="8.80,20.48 6.49,15.91"/>
        <lane id="3431_1" index="1" disallow="rail_fast" speed="36.11" length="7.75" width="3.06" customShape="1" shape="11.47,19.22 9.16,14.56"/>
        <lane id="3431_2" index="2" disallow="rail_fast" speed="36.11" length="7.75" width="3.03" customShape="1" shape="14.18,17.83 11.89,13.19"/>
        <lane id="3431_3" index="3" disallow="rail_fast" speed="36.11" length="7.75" width="3.05" customShape="1" shape="16.92,16.49 14.61,11.81"/>
        <lane id="3431_4" index="4" disallow="rail_fast" speed="36.11" length="7.75" width="3.05" customShape="1" shape="19.67,15.14 17.36,10.42"/>
    </edge>
    <edge id="3438" from="2" to="3" priority="1" spreadType="center" length="8.44">
        <lane id="3438_0" index="0" disallow="rail_fast" speed="36.11" length="8.44" width="2.94" customShape="1" shape="1.71,10.19 1.33,9.83"/>
        <lane id="3438_1" index="1" disallow="rail_fast" speed="36.11" length="8.44" width="2.94" customShape="1" shape="3.18,9.35 2.99,8.97"/>
        <lane id="3438_2" index="2" disallow="rail_fast" speed="36.11" length="8.44" width="3.05" customShape="1" shape="5.82,7.85 5.69,7.58"/>
        <lane id="3438_3" index="3" disallow="rail_fast" speed="36.11" length="8.44" width="3.03" customShape="1" shape="8.48,6.35 8.40,6.18"/>
        <lane id="3438_4" index="4" disallow="rail_fast" speed="36.11" length="8.44" width="3.05" customShape="1" shape="11.14,4.84 11.09,4.75"/>
        <lane id="3438_5" index="5" disallow="rail_fast" speed="36.11" length="8.44" width="3.12" customShape="1" shape="14.37,4.36 14.28,4.18"/>
    </edge>
    <edge id="3450" from="3" to="4" priority="1" spreadType="center" length="24.49">
        <lane id="3450_0" index="0" disallow="rail_fast" speed="36.11" length="24.49" width="3.22" customShape="1" shape="-1.36,7.31 -4.54,1.05 -8.33,-6.64 -10.62,-11.10"/>
        <lane id="3450_1" index="1" disallow="rail_fast" speed="36.11" length="24.49" width="2.87" customShape="1" shape="1.47,5.95 -1.54,-0.10 -5.36,-8.05 -7.66,-12.61"/>
        <lane id="3450_2" index="2" disallow="rail_fast" speed="36.11" length="24.49" width="3.00" customShape="1" shape="4.22,4.62 1.19,-1.43 -2.66,-9.38 -5.01,-13.96"/>
        <lane id="3450_3" index="3" disallow="rail_fast" speed="36.11" length="24.49" width="3.02" customShape="1" shape="6.95,3.28 3.86,-2.88 -0.02,-10.83 -2.28,-15.36"/>
        <lane id="3450_4" index="4" disallow="rail_fast" speed="36.11" length="24.49" width="3.02" customShape="1" shape="9.67,1.90 6.55,-4.34 2.66,-12.28 0.46,-16.75"/>
        <lane id="3450_5" index="5" disallow="rail_fast" speed="36.11" length="24.49" width="3.03" customShape="1" shape="12.45,0.48 9.24,-5.84 5.36,-13.79 3.18,-18.14"/>
    </edge>
    <edge id="3456" from="15" to="16" priority="1" spreadType="center" length="24.71">
        <lane id="3456_0" index="0" disallow="rail_fast" speed="36.11" length="24.71" width="3.05" customShape="1" shape="10.04,-24.88 13.21,-18.54 17.06,-10.63 20.37,-3.62"/>
        <lane id="3456_1" index="1" disallow="rail_fast" speed="36.11" length="24.71" width="2.91" customShape="1" shape="7.23,-23.47 10.64,-16.78 14.32,-9.21 17.71,-2.29"/>
        <lane id="3456_2" index="2" disallow="rail_fast" speed="36.11" length="24.71" width="2.89" customShape="1" shape="4.52,-22.12 8.01,-15.21 11.80,-7.51 15.11,-0.99"/>
    </edge>
    <edge id="3462" from="16" to="17" priority="1" spreadType="center" length="8.47">
        <lane id="3462_0" index="0" disallow="rail_fast" speed="36.11" length="8.47" width="3.05" customShape="1" shape="20.48,-3.41 23.59,2.66"/>
        <lane id="3462_1" index="1" disallow="rail_fast" speed="36.11" length="8.47" width="2.91" customShape="1" shape="17.81,-2.07 20.87,4.02"/>
        <lane id="3462_2" index="2" disallow="rail_fast" speed="36.11" length="8.47" width="2.89" customShape="1" shape="15.22,-0.76 18.23,5.34"/>
    </edge>
    <edge id="3470" from="17" to="18" priority="1" spreadType="center" length="7.64">
        <lane id="3470_0" index="0" disallow="rail_fast" speed="36.11" length="7.64" width="3.05" customShape="1" shape="24.97,5.39 27.71,10.94"/>
        <lane id="3470_1" index="1" disallow="rail_fast" speed="36.11" length="7.64" width="3.00" customShape="1" shape="22.23,6.75 24.99,12.28"/>
        <lane id="3470_2" index="2" disallow="rail_fast" speed="36.11" length="7.64" width="2.94" customShape="1" shape="19.57,8.07 22.32,13.66"/>
    </edge>
    <edge id="3479" from="13" to="14" priority="1" spreadType="center" length="22.65">
        <lane id="3479_0" index="0" disallow="rail_fast" speed="36.11" length="22.65" width="3.23" customShape="1" shape="-52.89,-26.11 -51.75,-26.69 -42.17,-31.44 -34.23,-35.39"/>
        <lane id="3479_1" index="1" disallow="bus rail_fast" speed="36.11" length="22.65" width="3.02" customShape="1" shape="-51.48,-23.32 -50.32,-23.91 -40.74,-28.66 -32.84,-32.59"/>
        <lane id="3479_2" index="2" disallow="bus rail_fast" speed="36.11" length="22.65" width="3.06" customShape="1" shape="-50.11,-20.61 -48.91,-21.21 -39.33,-25.96 -31.49,-29.86"/>
    </edge>
    <edge id="3487" from="11" to="12" priority="1" spreadType="center" length="21.43">
        <lane id="3487_0" index="0" disallow="rail_fast" speed="36.11" length="21.43" width="4.58" acceleration="1" customShape="1" shape="-24.97,-20.21 -34.93,-15.41 -43.77,-10.59 -44.66,-10.10"/>
        <lane id="3487_1" index="1" disallow="rail_fast" speed="36.11" length="21.43" width="3.11" customShape="1" shape="-26.81,-24.64 -36.82,-19.26 -45.47,-14.09 -46.50,-13.47"/>
        <lane id="3487_2" index="2" disallow="rail_fast" speed="36.11" length="21.43" width="3.66" customShape="1" shape="-28.11,-27.78 -38.35,-22.28 -47.00,-17.11 -48.13,-16.44"/>
    </edge>
    <edge id="3495" from="5" to="6" priority="1" spreadType="center" length="15.18">
        <lane id="3495_0" index="0" disallow="rail_fast" speed="36.11" length="15.18" width="3.88" customShape="1" shape="11.20,-62.85 20.10,-67.24 25.01,-69.65"/>
        <lane id="3495_1" index="1" disallow="rail_fast" speed="36.11" length="15.18" width="3.51" customShape="1" shape="12.83,-59.53 21.73,-63.91 26.64,-66.33"/>
        <lane id="3495_2" index="2" disallow="rail_fast" speed="36.11" length="15.18" width="3.38" customShape="1" shape="14.36,-56.43 23.22,-60.79 28.17,-63.23"/>
    </edge>
    <edge id="3502" from="21" to="22" priority="1" spreadType="center" length="11.54">
        <lane id="3502_0" index="0" disallow="rail_fast" speed="36.11" length="11.54" width="3.61" customShape="1" shape="32.71,-53.98 27.66,-51.51 25.97,-50.68"/>
        <lane id="3502_1" index="1" disallow="rail_fast" speed="36.11" length="11.54" width="3.63" customShape="1" shape="31.11,-57.24 26.13,-54.81 24.38,-53.95"/>
    </edge>
    <edge id="3528" from="22" to="23" priority="1" spreadType="center" length="6.58">
        <lane id="3528_0" index="0" disallow="rail_fast" speed="36.11" length="6.58" width="3.25" customShape="1" shape="19.82,-45.50 18.49,-43.68"/>
        <lane id="3528_1" index="1" disallow="rail_fast" speed="36.11" length="6.58" width="3.60" customShape="1" shape="18.73,-47.11 17.01,-46.26"/>
        <lane id="3528_2" index="2" disallow="rail_fast" speed="36.11" length="6.58" width="3.67" customShape="1" shape="16.67,-50.15 15.20,-49.42"/>
    </edge>
    <edge id="3534" from="23" to="24" priority="1" spreadType="center" length="6.61">
        <lane id="3534_0" index="0" disallow="rail_fast" speed="36.11" length="6.61" width="3.19" customShape="1" shape="15.45,-41.69 12.83,-40.43"/>
        <lane id="3534_1" index="1" disallow="rail_fast" speed="36.11" length="6.61" width="3.52" customShape="1" shape="13.98,-44.75 11.38,-43.46"/>
        <lane id="3534_2" index="2" disallow="rail_fast" speed="36.11" length="6.61" width="3.68" customShape="1" shape="12.40,-48.02 9.82,-46.73"/>
    </edge>
    <edge id="3542" from="9" to="10" priority="1" spreadType="center" length="42.05">
        <lane id="3542_0" index="0" disallow="bus rail_fast" speed="36.11" length="42.05" width="2.85" customShape="1" shape="-29.04,-55.69 -32.41,-62.61 -36.47,-71.54 -40.24,-80.26 -43.86,-89.50 -45.26,-92.91"/>
        <lane id="3542_1" index="1" disallow="rail_fast" speed="36.11" length="42.05" width="2.97" customShape="1" shape="-26.19,-57.15 -29.65,-64.12 -33.73,-72.90 -37.47,-81.59 -41.13,-90.71 -42.47,-94.05"/>
        <lane id="3542_2" index="2" disallow="rail_fast" speed="36.11" length="42.05" width="2.96" customShape="1" shape="-23.52,-58.52 -26.98,-65.64 -31.03,-74.36 -34.80,-83.05 -38.30,-91.84 -39.63,-95.22"/>
    </edge>
    <edge id="3573" from="27" to="28" priority="1" spreadType="center" length="41.48">
        <lane id="3573_0" index="0" disallow="rail_fast" speed="36.11" length="41.48" width="3.35" customShape="1" shape="-24.54,-102.89 -22.88,-99.56 -18.63,-90.98 -14.19,-82.04 -9.89,-73.58 -6.66,-67.69"/>
        <lane id="3573_1" index="1" disallow="rail_fast" speed="36.11" length="41.48" width="2.88" customShape="1" shape="-27.40,-101.48 -25.65,-97.99 -21.46,-89.61 -16.92,-80.55 -12.70,-72.12 -9.72,-66.08"/>
        <lane id="3573_2" index="2" disallow="rail_fast" speed="36.11" length="41.48" width="3.08" customShape="1" shape="-30.12,-100.14 -28.34,-96.59 -24.15,-88.21 -19.61,-79.15 -15.39,-70.72 -12.45,-64.65"/>
        <lane id="3573_3" index="3" disallow="rail_fast" speed="36.11" length="41.48" width="2.82" customShape="1" shape="-32.81,-98.82 -31.01,-95.23 -26.82,-86.85 -22.28,-77.79 -18.11,-69.31 -15.15,-63.23"/>
        <lane id="3573_4" index="4" disallow="rail_fast" speed="36.11" length="41.48" width="3.05" customShape="1" shape="-35.52,-97.49 -33.71,-93.80 -29.52,-85.43 -24.98,-76.36 -20.81,-67.89 -17.83,-61.82"/>
    </edge>
    <edge id="3600" from="14" to="9" priority="1" spreadType="center" length="24.20">
        <lane id="3600_0" index="0" disallow="bus truck rail_fast" speed="36.11" length="24.20" width="3.23" customShape="1" shape="-22.94,-42.69 -23.03,-42.87"/>
    </edge>
    <edge id="3602" from="24" to="15" priority="1" spreadType="center" length="16.41">
        <lane id="3602_0" index="0" disallow="bus truck rail_fast" speed="36.11" length="16.41" width="2.93" customShape="1" shape="9.80,-38.42 9.24,-37.83"/>
    </edge>
    <edge id="3604" from="4" to="11" priority="1" spreadType="center" length="15.84">