<routes>
	<vehicle depart="0.1" departLane="0" departPos="2.5" departSpeed="0.90269655" id="31" type="passenger">
		<route edges="443 415"/>
	</vehicle>
	<vehicle depart="0.1" departLane="0" departPos="13.796906432385926" departSpeed="0.31853292" id="38" type="passenger">
		<route edges=":20_6 419"/>
	</vehicle>
	<vehicle depart="0.1" departLane="0" departPos="6.779181611529858" departSpeed="3.3391258" id="39" type="passenger">
		<route edges=":20_11 192"/>
	</vehicle>
	<vehicle depart="0.1" departLane="0" departPos="62.99177065273464" departSpeed="0.35531456" id="315" type="passenger">
		<route edges="416 875"/>
	</vehicle>
	<vehicle depart="0.1" departLane="0" departPos="56.04809429624124" departSpeed="0.21795655" id="317" type="passenger">
		<route edges="416 875"/>
	</vehicle>
	<vehicle depart="0.1" departLane="0" departPos="48.608173896958874" departSpeed="0.27980909" id="318" type="passenger">
		<route edges="416 875"/>
	</vehicle>
	<vehicle depart="0.1" departLane="0" departPos="2.5" departSpeed="13.745309" id="334" type="passenger">
		<route edges="415"/>
	</vehicle>
	<vehicle depart="0.1" departLane="0" departPos="68.85029822040366" departSpeed="2.209342" id="30" type="motorcycle">
		<route edges="416 419"/>
	</vehicle>
	<vehicle depart="0.1" departLane="0" departPos="27.82603395783797" departSpeed="0.50506347" id="323" type="motorcycle">
		<route edges="416 875"/>
	</vehicle>
	<vehicle depart="0.1" departLane="0" departPos="38.11775336727441" departSpeed="0.028610385" id="321" type="truck">
		<route edges="416 875"/>
	</vehicle>
</routes>
