<!-- generated on Tue Feb  9 22:02:30 2021 by Eclipse SUMO netconvert Version 1.8.0
<configuration xmlns:xsi="http://www.w3.org/2001/XMLSchema-instance" xsi:noNamespaceSchemaLocation="http://sumo.dlr.de/xsd/netconvertConfiguration.xsd">

    <input>
        <node-files value="./converted_scenarios/scenario-factory/DEU_Hennigsdorf-1_2_I-1-1/DEU_Hennigsdorf-1_2_I-1-1.nod.xml"/>
        <edge-files value="./converted_scenarios/scenario-factory/DEU_Hennigsdorf-1_2_I-1-1/DEU_Hennigsdorf-1_2_I-1-1.edg.xml"/>
        <connection-files value="./converted_scenarios/scenario-factory/DEU_Hennigsdorf-1_2_I-1-1/DEU_Hennigsdorf-1_2_I-1-1.con.xml"/>
        <tllogic-files value="./converted_scenarios/scenario-factory/DEU_Hennigsdorf-1_2_I-1-1/DEU_Hennigsdorf-1_2_I-1-1.tll.xml"/>
        <type-files value="/home/zen/commonroad-interactive-benchmarks/install/commonroad-map-tool/crmapconverter/sumo_map/templates/DEU.typ.xml"/>
    </input>

    <output>
        <output-file value="./converted_scenarios/scenario-factory/DEU_Hennigsdorf-1_2_I-1-1/DEU_Hennigsdorf-1_2_I-1-1.net.xml"/>
    </output>

    <processing>
        <geometry.remove.keep-edges.explicit value="true"/>
        <geometry.avoid-overlap value="true"/>
        <offset.disable-normalization value="true"/>
    </processing>

    <junctions>
        <no-turnarounds value="true"/>
        <junctions.internal-link-detail value="20"/>
    </junctions>

    <report>
        <aggregate-warnings value="5"/>
    </report>

    <random_number>
        <seed value="1234"/>
    </random_number>

</configuration>
--><net xmlns:xsi="http://www.w3.org/2001/XMLSchema-instance" version="1.6" junctionCornerDetail="5" junctionLinkDetail="20" limitTurnSpeed="5.50" xsi:noNamespaceSchemaLocation="http://sumo.dlr.de/xsd/net_file.xsd">

    <location netOffset="0.00,0.00" convBoundary="398.60,-883.58,473.50,-717.34" origBoundary="398.60,-883.58,473.50,-717.34" projParameter="!"/>

    <type id="highway.bridleway" priority="1" speed="2.78" allow="pedestrian" oneway="1" width="2.00"/>
    <type id="highway.bus_guideway" priority="1" speed="27.78" allow="bus" oneway="1"/>
    <type id="highway.cycleway" priority="1" speed="8.33" allow="bicycle" oneway="0" width="1.00"/>
    <type id="highway.footway" priority="1" speed="2.78" allow="pedestrian" oneway="1" width="2.00"/>
    <type id="highway.ford" priority="1" speed="2.78" allow="army" oneway="0"/>
    <type id="highway.living_street" priority="2" speed="2.78" disallow="tram rail_urban rail rail_electric rail_fast ship" oneway="0"/>
    <type id="highway.motorway" priority="14" speed="39.44" allow="private emergency authority army vip passenger hov taxi bus coach delivery truck trailer motorcycle evehicle custom1 custom2" oneway="1"/>
    <type id="highway.motorway_link" priority="9" speed="22.22" allow="private emergency authority army vip passenger hov taxi bus coach delivery truck trailer motorcycle evehicle custom1 custom2" oneway="1"/>
    <type id="highway.path" priority="1" speed="2.78" allow="pedestrian bicycle" oneway="0" width="2.00"/>
    <type id="highway.pedestrian" priority="1" speed="2.78" allow="pedestrian" oneway="1" width="2.00"/>
    <type id="highway.primary" priority="12" speed="27.78" disallow="pedestrian tram rail_urban rail rail_electric rail_fast ship" oneway="0"/>
    <type id="highway.primary_link" priority="7" speed="22.22" disallow="pedestrian tram rail_urban rail rail_electric rail_fast ship" oneway="0"/>
    <type id="highway.raceway" priority="15" speed="83.33" allow="vip" oneway="0"/>
    <type id="highway.residential" priority="3" speed="13.89" disallow="pedestrian tram rail_urban rail rail_electric rail_fast ship" oneway="0"/>
    <type id="highway.secondary" priority="11" speed="27.78" disallow="pedestrian tram rail_urban rail rail_electric rail_fast ship" oneway="0"/>
    <type id="highway.secondary_link" priority="6" speed="22.22" disallow="pedestrian tram rail_urban rail rail_electric rail_fast ship" oneway="0"/>
    <type id="highway.service" priority="1" speed="5.56" allow="pedestrian delivery bicycle" oneway="0"/>
    <type id="highway.stairs" priority="1" speed="1.39" allow="pedestrian" oneway="1" width="2.00"/>
    <type id="highway.step" priority="1" speed="1.39" allow="pedestrian" oneway="1" width="2.00"/>
    <type id="highway.steps" priority="1" speed="1.39" allow="pedestrian" oneway="1" width="2.00"/>
    <type id="highway.tertiary" priority="10" speed="22.22" disallow="pedestrian tram rail_urban rail rail_electric rail_fast ship" oneway="0"/>
    <type id="highway.tertiary_link" priority="5" speed="22.22" disallow="pedestrian tram rail_urban rail rail_electric rail_fast ship" oneway="0"/>
    <type id="highway.track" priority="1" speed="5.56" allow="pedestrian motorcycle moped bicycle" oneway="0"/>
    <type id="highway.trunk" priority="13" speed="27.78" disallow="pedestrian bicycle tram rail_urban rail rail_electric rail_fast ship" oneway="0"/>
    <type id="highway.trunk_link" priority="8" speed="22.22" disallow="pedestrian bicycle tram rail_urban rail rail_electric rail_fast ship" oneway="0"/>
    <type id="highway.unclassified" priority="4" speed="13.89" disallow="pedestrian tram rail_urban rail rail_electric rail_fast ship" oneway="0"/>
    <type id="highway.unsurfaced" priority="1" speed="8.33" disallow="tram rail_urban rail rail_electric rail_fast ship" oneway="0"/>
    <type id="railway.highspeed" priority="21" speed="69.44" allow="rail_fast" oneway="1"/>
    <type id="railway.light_rail" priority="19" speed="27.78" allow="rail_urban" oneway="1"/>
    <type id="railway.preserved" priority="16" speed="27.78" allow="rail" oneway="1"/>
    <type id="railway.rail" priority="20" speed="44.44" allow="rail" oneway="1"/>
    <type id="railway.subway" priority="18" speed="27.78" allow="rail_urban" oneway="1"/>
    <type id="railway.tram" priority="17" speed="13.89" allow="tram" oneway="1"/>

    <edge id=":13_0" function="internal">
        <lane id=":13_0_0" index="0" disallow="pedestrian tram rail_urban rail rail_electric rail_fast ship" speed="36.11" length="2.98" width="3.47" shape="468.95,-789.10 467.12,-791.45"/>
    </edge>
    <edge id=":15_0" function="internal">
        <lane id=":15_0_0" index="0" disallow="pedestrian tram rail_urban rail rail_electric rail_fast ship" speed="36.11" length="1.24" width="3.43" shape="443.84,-804.02 443.93,-804.00 444.01,-803.98 444.08,-803.96 444.15,-803.94 444.21,-803.93 444.26,-803.91 444.31,-803.90 444.36,-803.89 444.41,-803.88 444.46,-803.87 444.51,-803.86 444.56,-803.85 444.61,-803.84 444.67,-803.83 444.73,-803.82 444.80,-803.82 444.87,-803.81 444.95,-803.80 445.05,-803.79"/>
    </edge>
    <edge id=":20_0" function="internal">
        <lane id=":20_0_0" index="0" disallow="pedestrian tram rail_urban rail rail_electric rail_fast ship" speed="7.26" length="13.98" width="3.50" shape="460.40,-798.51 459.05,-798.46 458.37,-797.78 457.87,-796.94 457.47,-796.06 457.13,-795.15 456.83,-794.22 456.33,-792.35 455.72,-789.49 455.22,-786.62"/>
    </edge>
    <edge id=":20_1" function="internal">
        <lane id=":20_1_0" index="0" disallow="pedestrian tram rail_urban rail rail_electric rail_fast ship" speed="29.36" length="12.89" width="3.50" shape="460.40,-798.51 458.92,-798.85 447.61,-800.03"/>
    </edge>
    <edge id=":20_2" function="internal">
        <lane id=":20_2_0" index="0" disallow="pedestrian tram rail_urban rail rail_electric rail_fast ship" speed="10.13" length="18.14" width="3.50" shape="460.40,-798.51 458.32,-799.40 457.05,-800.69 456.31,-802.06 455.88,-803.40 455.63,-804.70 455.50,-806.00 455.47,-808.47 455.63,-810.90 456.09,-814.44"/>
    </edge>
    <edge id=":20_3" function="internal">
        <lane id=":20_3_0" index="0" disallow="pedestrian tram rail_urban rail rail_electric rail_fast ship" speed="11.51" length="17.25" width="3.49" shape="459.55,-813.92 459.15,-811.04 458.97,-809.12 458.88,-807.20 458.89,-806.23 458.96,-805.27 459.10,-804.32 459.38,-803.40 459.87,-802.58 464.67,-799.53"/>
    </edge>
    <edge id=":20_4" function="internal">
        <lane id=":20_4_0" index="0" disallow="pedestrian tram rail_urban rail rail_electric rail_fast ship" speed="36.11" length="27.64" width="3.50" shape="459.55,-813.92 457.39,-800.26 455.22,-786.62"/>
    </edge>
    <edge id=":20_5" function="internal">
        <lane id=":20_5_0" index="0" disallow="pedestrian tram rail_urban rail rail_electric rail_fast ship" speed="10.25" length="22.85" width="3.50" shape="459.55,-813.92 459.39,-812.78 459.02,-809.40 458.52,-805.95 457.95,-803.56 457.44,-802.25 456.59,-800.91 454.99,-799.74 447.61,-800.03"/>
    </edge>
    <edge id=":20_6" function="internal">
        <lane id=":20_6_0" index="0" disallow="pedestrian tram rail_urban rail rail_electric rail_fast ship" speed="9.93" length="21.29" width="3.50" shape="445.24,-803.77 454.48,-802.99 455.29,-803.55 455.74,-804.45 455.96,-805.42 456.09,-807.43 456.00,-810.44 455.99,-813.45 456.09,-814.44"/>
    </edge>
    <edge id=":20_7" function="internal">
        <lane id=":20_7_0" index="0" disallow="pedestrian tram rail_urban rail rail_electric rail_fast ship" speed="17.56" length="20.20" width="3.49" shape="445.24,-803.77 459.50,-802.30 464.67,-799.53"/>
    </edge>
    <edge id=":20_8" function="internal">
        <lane id=":20_8_0" index="0" disallow="pedestrian tram rail_urban rail rail_electric rail_fast ship" speed="10.38" length="25.60" width="3.50" shape="445.24,-803.77 454.66,-802.33 455.40,-801.22 455.80,-799.95 456.02,-798.63 456.14,-795.95 455.92,-791.94 455.42,-787.95 455.22,-786.62"/>
    </edge>
    <edge id=":20_9" function="internal">
        <lane id=":20_9_0" index="0" disallow="pedestrian tram rail_urban rail rail_electric rail_fast ship" speed="8.84" length="18.16" width="3.50" shape="451.76,-787.15 452.01,-788.48 452.76,-791.97 453.38,-795.33 453.57,-797.46 453.53,-798.33 453.45,-798.96 453.27,-799.41 447.61,-800.03"/>
    </edge>
    <edge id=":20_10" function="internal">
        <lane id=":20_10_0" index="0" disallow="pedestrian tram rail_urban rail rail_electric rail_fast ship" speed="36.11" length="27.63" width="3.50" shape="451.76,-787.15 453.93,-800.81 456.09,-814.44"/>
    </edge>
    <edge id=":20_11" function="internal">
        <lane id=":20_11_0" index="0" disallow="pedestrian tram rail_urban rail rail_electric rail_fast ship" speed="8.55" length="23.33" width="3.49" shape="451.76,-787.15 452.41,-790.72 453.29,-794.25 454.09,-796.58 454.61,-797.77 455.26,-798.94 456.10,-800.07 457.21,-801.07 458.62,-801.81 464.67,-799.53"/>
    </edge>
    <edge id=":9_0" function="internal">
        <lane id=":9_0_0" index="0" disallow="pedestrian tram rail_urban rail rail_electric rail_fast ship" speed="36.11" length="2.94" width="3.50" shape="446.36,-800.15 446.14,-800.17 445.94,-800.19 445.76,-800.20 445.60,-800.21 445.45,-800.22 445.32,-800.23 445.19,-800.24 445.07,-800.25 444.95,-800.26 444.83,-800.27 444.72,-800.29 444.60,-800.30 444.47,-800.32 444.34,-800.34 444.19,-800.37 444.03,-800.40 443.86,-800.43 443.66,-800.47 443.45,-800.52"/>
    </edge>

    <edge id="108" from="9" to="10" priority="3" type="highway.residential" spreadType="center" length="68.53">
        <lane id="108_0" index="0" disallow="pedestrian tram rail_urban rail rail_electric rail_fast ship" speed="36.11" length="68.53" width="3.50" customShape="1" shape="443.45,-800.52 442.37,-800.76 440.93,-801.30 438.26,-802.85 434.01,-805.75 429.98,-808.95 426.17,-812.41 422.25,-816.49 418.25,-821.19 413.91,-826.94 409.00,-834.18 400.00,-848.58 398.60,-850.77"/>
    </edge>
    <edge id="109" from="16" to="15" priority="3" type="highway.residential" spreadType="center" length="68.52">
        <lane id="109_0" index="0" disallow="pedestrian tram rail_urban rail rail_electric rail_fast ship" speed="36.11" length="68.52" width="3.50" customShape="1" shape="399.87,-855.28 402.58,-851.05 411.45,-836.84 416.22,-829.73 420.41,-824.10 424.25,-819.50 428.01,-815.52 431.65,-812.14 435.50,-809.01 439.57,-806.17 442.05,-804.67 443.14,-804.19 443.84,-804.02"/>
    </edge>
    <edge id="192" from="20" to="18" priority="3" type="highway.residential" spreadType="center" length="13.42" shape="457.16,-802.12 473.25,-789.23">
        <lane id="192_0" index="0" disallow="pedestrian tram rail_urban rail rail_electric rail_fast ship" speed="36.11" length="13.42" width="3.49" customShape="1" shape="464.67,-799.53 465.07,-799.18 467.65,-796.38 470.82,-792.42 472.04,-790.82 473.25,-789.23"/>
    </edge>
    <edge id="193" from="14" to="13" priority="3" type="highway.residential" spreadType="center" length="7.51">
        <lane id="193_0" index="0" disallow="pedestrian tram rail_urban rail rail_electric rail_fast ship" speed="36.11" length="7.51" width="3.50" customShape="1" shape="473.50,-783.13 470.47,-787.11 469.25,-788.70 468.95,-789.10"/>
    </edge>
    <edge id="415" from="20" to="6" priority="3" type="highway.residential" spreadType="center" length="70.00" shape="457.93,-800.45 445.20,-717.34">
        <lane id="415_0" index="0" disallow="pedestrian tram rail_urban rail rail_electric rail_fast ship" speed="36.11" length="70.00" width="3.50" customShape="1" shape="455.22,-786.62 451.93,-765.27 445.20,-717.34"/>
    </edge>
    <edge id="416" from="12" to="20" priority="3" type="highway.residential" spreadType="center" length="70.00" shape="441.74,-717.91 454.47,-800.98">
        <lane id="416_0" index="0" disallow="pedestrian tram rail_urban rail rail_electric rail_fast ship" speed="36.11" length="70.00" width="3.50" customShape="1" shape="441.74,-717.91 448.47,-765.81 451.77,-787.19"/>
    </edge>
    <edge id="418" from="11" to="20" priority="3" type="highway.residential" spreadType="center" length="70.02" shape="470.52,-883.05 457.92,-800.37">
        <lane id="418_0" index="0" disallow="pedestrian tram rail_urban rail rail_electric rail_fast ship" speed="36.11" length="70.02" width="3.50" customShape="1" shape="470.52,-883.05 466.21,-855.92 459.55,-813.89"/>
    </edge>
    <edge id="419" from="20" to="3" priority="3" type="highway.residential" spreadType="center" length="70.00" shape="454.46,-800.90 467.06,-883.58">
        <lane id="419_0" index="0" disallow="pedestrian tram rail_urban rail rail_electric rail_fast ship" speed="36.11" length="70.00" width="3.50" customShape="1" shape="456.09,-814.44 462.76,-856.47 467.06,-883.58"/>
    </edge>
    <edge id="443" from="15" to="20" priority="3" type="highway.residential" spreadType="center" length="0.19" shape="445.29,-803.77 456.66,-802.33">
        <lane id="443_0" index="0" disallow="pedestrian tram rail_urban rail rail_electric rail_fast ship" speed="36.11" length="0.19" width="3.43" customShape="1" shape="445.05,-803.79 445.24,-803.77"/>
    </edge>
    <edge id="68" from="13" to="20" priority="3" type="highway.residential" spreadType="center" length="9.80" shape="468.05,-790.28 455.05,-799.37">
        <lane id="68_0" index="0" disallow="pedestrian tram rail_urban rail rail_electric rail_fast ship" speed="36.11" length="9.80" width="3.47" customShape="1" shape="467.12,-791.45 465.20,-793.86 462.97,-796.37 461.42,-797.83 460.74,-798.35 460.40,-798.51"/>
    </edge>
    <edge id="875" from="20" to="9" priority="3" type="highway.residential" spreadType="center" length="1.26" shape="456.25,-798.93 444.90,-800.29">
        <lane id="875_0" index="0" disallow="pedestrian tram rail_urban rail rail_electric rail_fast ship" speed="36.11" length="1.26" width="3.50" customShape="1" shape="447.61,-800.03 447.14,-800.07 446.36,-800.15"/>
    </edge>

    <junction id="10" type="dead_end" x="398.60" y="-850.77" incLanes="108_0" intLanes="" shape="397.12,-849.83 400.07,-851.71" rightOfWay="edgePriority"/>
    <junction id="11" type="dead_end" x="470.52" y="-883.05" incLanes="" intLanes="" shape="468.79,-883.33 472.24,-882.78" rightOfWay="edgePriority"/>
    <junction id="12" type="dead_end" x="441.74" y="-717.91" incLanes="" intLanes="" shape="443.48,-717.67 440.01,-718.16" rightOfWay="edgePriority"/>
    <junction id="13" type="priority" x="468.05" y="-790.28" incLanes="193_0" intLanes=":13_0_0" shape="467.56,-788.04 470.34,-790.16 468.48,-792.53 465.76,-790.37" rightOfWay="edgePriority">
        <request index="0" response="0" foes="0" cont="0"/>
    </junction>
    <junction id="14" type="dead_end" x="473.50" y="-783.13" incLanes="" intLanes="" shape="474.89,-784.19 472.11,-782.07" rightOfWay="edgePriority"/>
    <junction id="15" type="priority" x="445.29" y="-803.77" incLanes="109_0" intLanes=":15_0_0" shape="446.60,-801.92 446.93,-805.33 445.86,-805.43 445.48,-805.47 445.11,-805.53 444.67,-805.62 444.07,-805.76 443.61,-802.28 444.70,-802.06 445.09,-802.02 445.96,-801.97" rightOfWay="edgePriority">
        <request index="0" response="0" foes="0" cont="0"/>
    </junction>
    <junction id="16" type="dead_end" x="399.87" y="-855.28" incLanes="" intLanes="" shape="398.39,-854.33 401.34,-856.22" rightOfWay="edgePriority"/>
    <junction id="18" type="dead_end" x="473.25" y="-789.23" incLanes="192_0" intLanes="" shape="474.64,-790.28 471.87,-788.17" rightOfWay="edgePriority"/>
    <junction id="20" type="priority" x="456.19" y="-800.67" incLanes="68_0 418_0 443_0 416_0" intLanes=":20_0_0 :20_1_0 :20_2_0 :20_3_0 :20_4_0 :20_5_0 :20_6_0 :20_7_0 :20_8_0 :20_9_0 :20_10_0 :20_11_0" shape="460.02,-796.71 460.76,-800.26 464.18,-797.58 465.16,-801.43 463.63,-803.02 462.46,-804.78 461.64,-806.73 461.17,-808.85 461.05,-811.14 461.28,-813.62 454.36,-814.72 443.76,-805.64 443.30,-802.23 447.56,-801.79 447.66,-798.26 449.69,-796.88 450.24,-795.35 450.48,-793.26 450.41,-790.62 450.03,-787.42 456.95,-786.35 457.52,-789.80 458.07,-792.55 458.59,-794.62 459.09,-796.00 459.57,-796.70">
        <request index="0" response="000000010000" foes="000100010000" cont="0"/>
        <request index="1" response="111000110000" foes="111100110000" cont="0"/>
        <request index="2" response="110011110000" foes="110111110000" cont="0"/>
        <request index="3" response="000000000000" foes="100010000000" cont="0"/>
        <request index="4" response="000000000000" foes="100110000111" cont="0"/>
        <request index="5" response="011000000000" foes="111110000110" cont="0"/>
        <request index="6" response="010000000000" foes="010000000100" cont="0"/>
        <request index="7" response="110000111000" foes="110000111100" cont="0"/>
        <request index="8" response="110000110111" foes="110000110111" cont="0"/>
        <request index="9" response="000000000000" foes="000000100010" cont="0"/>
        <request index="10" response="000000000000" foes="000111100110" cont="0"/>
        <request index="11" response="000000111000" foes="000110111110" cont="0"/>
    </junction>
    <junction id="3" type="dead_end" x="467.06" y="-883.58" incLanes="419_0" intLanes="" shape="465.33,-883.85 468.78,-883.30" rightOfWay="edgePriority"/>
    <junction id="6" type="dead_end" x="445.20" y="-717.34" incLanes="415_0" intLanes="" shape="446.93,-717.10 443.46,-717.59" rightOfWay="edgePriority"/>
    <junction id="9" type="priority" x="444.90" y="-800.29" incLanes="875_0" intLanes=":9_0_0" shape="446.19,-798.41 446.52,-801.89 445.46,-801.98 445.09,-802.01 444.72,-802.06 444.28,-802.13 443.68,-802.26 443.22,-798.78 444.31,-798.57 444.69,-798.52 445.08,-798.49 445.55,-798.46" rightOfWay="edgePriority">
        <request index="0" response="0" foes="0" cont="0"/>
    </junction>

    <connection from="109" to="443" fromLane="0" toLane="0" contPos="-4.00" via=":15_0_0" dir="s" state="M"/>
    <connection from="193" to="68" fromLane="0" toLane="0" contPos="-4.00" via=":13_0_0" dir="s" state="M"/>
    <connection from="416" to="875" fromLane="0" toLane="0" contPos="-4.00" shape="451.77,-787.19 452.01,-788.48 452.76,-791.97 453.38,-795.33 453.57,-797.46 453.53,-798.33 453.45,-798.96 453.27,-799.41 452.99,-799.50" via=":20_9_0" dir="r" state="M"/>
    <connection from="416" to="419" fromLane="0" toLane="0" contPos="-4.00" shape="451.77,-787.19 453.93,-800.81 456.09,-814.44" via=":20_10_0" dir="s" state="M"/>
    <connection from="416" to="192" fromLane="0" toLane="0" contPos="-4.00" shape="451.77,-787.19 452.41,-790.72 453.29,-794.25 454.09,-796.58 454.61,-797.77 455.26,-798.94 456.10,-800.07 457.21,-801.07 458.62,-801.81 460.55,-802.10" via=":20_11_0" dir="l" state="m"/>
    <connection from="418" to="192" fromLane="0" toLane="0" contPos="-4.00" shape="459.55,-813.92 459.15,-811.04 458.97,-809.12 458.88,-807.20 458.89,-806.23 458.96,-805.27 459.10,-804.32 459.38,-803.40 459.87,-802.58 460.55,-802.10" via=":20_3_0" dir="r" state="M"/>
    <connection from="418" to="415" fromLane="0" toLane="0" contPos="-4.00" shape="459.55,-813.92 457.39,-800.26 455.22,-786.62" via=":20_4_0" dir="s" state="M"/>
    <connection from="418" to="875" fromLane="0" toLane="0" contPos="-4.00" shape="459.55,-813.92 459.39,-812.78 459.02,-809.40 458.52,-805.95 457.95,-803.56 457.44,-802.25 456.59,-800.91 454.99,-799.74 452.99,-799.50" via=":20_5_0" dir="l" state="m"/>
    <connection from="443" to="419" fromLane="0" toLane="0" contPos="-4.00" shape="453.48,-802.93 454.48,-802.99 455.29,-803.55 455.74,-804.45 455.96,-805.42 456.09,-807.43 456.00,-810.44 455.99,-813.45 456.09,-814.44" via=":20_6_0" dir="r" state="m"/>
    <connection from="443" to="192" fromLane="0" toLane="0" contPos="-4.00" shape="453.48,-802.93 459.50,-802.30 460.55,-802.10" via=":20_7_0" dir="s" state="m"/>
    <connection from="443" to="415" fromLane="0" toLane="0" contPos="-4.00" shape="453.48,-802.93 454.66,-802.33 455.40,-801.22 455.80,-799.95 456.02,-798.63 456.14,-795.95 455.92,-791.94 455.42,-787.95 455.22,-786.62" via=":20_8_0" dir="l" state="m"/>
    <connection from="68" to="415" fromLane="0" toLane="0" contPos="-4.00" shape="459.89,-798.70 459.05,-798.46 458.37,-797.78 457.87,-796.94 457.47,-796.06 457.13,-795.15 456.83,-794.22 456.33,-792.35 455.72,-789.49 455.22,-786.62" via=":20_0_0" dir="r" state="m"/>
    <connection from="68" to="875" fromLane="0" toLane="0" contPos="-4.00" shape="459.89,-798.70 458.92,-798.85 452.99,-799.50" via=":20_1_0" dir="s" state="m"/>
    <connection from="68" to="419" fromLane="0" toLane="0" contPos="-4.00" shape="459.89,-798.70 458.32,-799.40 457.05,-800.69 456.31,-802.06 455.88,-803.40 455.63,-804.70 455.50,-806.00 455.47,-808.47 455.63,-810.90 456.09,-814.44" via=":20_2_0" dir="l" state="m"/>
    <connection from="875" to="108" fromLane="0" toLane="0" contPos="-4.00" via=":9_0_0" dir="s" state="M"/>

    <connection from=":13_0" to="68" fromLane="0" toLane="0" dir="s" state="M"/>
    <connection from=":15_0" to="443" fromLane="0" toLane="0" dir="s" state="M"/>
    <connection from=":20_0" to="415" fromLane="0" toLane="0" dir="r" state="M"/>
    <connection from=":20_1" to="875" fromLane="0" toLane="0" dir="s" state="M"/>
    <connection from=":20_2" to="419" fromLane="0" toLane="0" dir="l" state="M"/>
    <connection from=":20_3" to="192" fromLane="0" toLane="0" dir="r" state="M"/>
    <connection from=":20_4" to="415" fromLane="0" toLane="0" dir="s" state="M"/>
    <connection from=":20_5" to="875" fromLane="0" toLane="0" dir="l" state="M"/>
    <connection from=":20_6" to="419" fromLane="0" toLane="0" dir="r" state="M"/>
    <connection from=":20_7" to="192" fromLane="0" toLane="0" dir="s" state="M"/>
    <connection from=":20_8" to="415" fromLane="0" toLane="0" dir="l" state="M"/>
    <connection from=":20_9" to="875" fromLane="0" toLane="0" dir="r" state="M"/>
    <connection from=":20_10" to="419" fromLane="0" toLane="0" dir="s" state="M"/>
    <connection from=":20_11" to="192" fromLane="0" toLane="0" dir="l" state="M"/>
    <connection from=":9_0" to="108" fromLane="0" toLane="0" dir="s" state="M"/>

</net>