<routes>
	<vehicle depart="0.1" departLane="0" departPos="26.360737699677664" departSpeed="0.0014457195" id="351" type="bus">
		<route edges="19811 20183"/>
	</vehicle>
	<vehicle depart="0.1" departLane="0" departPos="26.24144291440655" departSpeed="3.6463895" id="37" type="passenger">
		<route edges=":75_2 19810 19700"/>
	</vehicle>
	<vehicle depart="0.1" departLane="0" departPos="9.341676991346532" departSpeed="0.051636855" id="38" type="passenger">
		<route edges=":82_1 19811"/>
	</vehicle>
	<vehicle depart="0.1" departLane="0" departPos="14.51594512880115" departSpeed="4.3139817" id="317" type="passenger">
		<route edges=":82_3 19700"/>
	</vehicle>
	<vehicle depart="0.1" departLane="0" departPos="33.86138104724031" departSpeed="1.3730976e-05" id="341" type="passenger">
		<route edges="19811 20183"/>
	</vehicle>
	<vehicle depart="0.1" departLane="0" departPos="11.449819922636586" departSpeed="0.013718444" id="356" type="passenger">
		<route edges="19811 20183"/>
	</vehicle>
	<vehicle depart="0.1" departLane="0" departPos="60.32456057904957" departSpeed="0.0" id="359" type="passenger">
		<route edges="19701 19811"/>
	</vehicle>
	<vehicle depart="0.1" departLane="0" departPos="52.82170115875732" departSpeed="0.00094393056" id="364" type="passenger">
		<route edges="19701 19811"/>
	</vehicle>
	<vehicle depart="0.1" departLane="0" departPos="34.61700950438609" departSpeed="0.71849549" id="30" type="truck">
		<route edges=":82_1 19811"/>
	</vehicle>
	<vehicle depart="0.1" departLane="0" departPos="28.367828558267416" departSpeed="2.6100157" id="32" type="truck">
		<route edges="19810 19700"/>
	</vehicle>
</routes>
