<!-- generated on 2020-12-18 15:55:33.156534 by ipykernel_launcher.py v1_2_0+5214-53edc58fcd
-->
<nodes>
	<node id="1" type="from" x="-28.27478" y="36.53935"/>
	<node id="2" type="to" x="30.734209999999997" y="-17.13778"/>
	<node id="3" type="to" x="110.7247" y="-89.57994166666667"/>
	<node id="4" type="from" x="-38.121" y="26.04215"/>
</nodes>
