<routes>
	<vehicle depart="0.1" departLane="1" departPos="0" departSpeed="10.773688" id="1" type="passenger">
		<route edges="26 28 24"/>
	</vehicle>
	<vehicle depart="0.1" departLane="0" departPos="0" departSpeed="17.761822" id="2" type="passenger">
		<route edges="26 27 24"/>
	</vehicle>
	<vehicle depart="0.1" departLane="0" departPos="116.67634337699039" departSpeed="6.0707787" id="3" type="passenger">
		<route edges="26 26 28 24"/>
	</vehicle>
</routes>
