<!-- generated on Tue Feb  9 22:21:31 2021 by Eclipse SUMO netconvert Version 1.8.0
<configuration xmlns:xsi="http://www.w3.org/2001/XMLSchema-instance" xsi:noNamespaceSchemaLocation="http://sumo.dlr.de/xsd/netconvertConfiguration.xsd">

    <input>
        <node-files value="./converted_scenarios/scenario-factory/ITA_CarpiCentro-5_3_I-1-1/ITA_CarpiCentro-5_3_I-1-1.nod.xml"/>
        <edge-files value="./converted_scenarios/scenario-factory/ITA_CarpiCentro-5_3_I-1-1/ITA_CarpiCentro-5_3_I-1-1.edg.xml"/>
        <connection-files value="./converted_scenarios/scenario-factory/ITA_CarpiCentro-5_3_I-1-1/ITA_CarpiCentro-5_3_I-1-1.con.xml"/>
        <tllogic-files value="./converted_scenarios/scenario-factory/ITA_CarpiCentro-5_3_I-1-1/ITA_CarpiCentro-5_3_I-1-1.tll.xml"/>
        <type-files value="/home/zen/commonroad-interactive-benchmarks/install/commonroad-map-tool/crmapconverter/sumo_map/templates/DEU.typ.xml"/>
    </input>

    <output>
        <output-file value="./converted_scenarios/scenario-factory/ITA_CarpiCentro-5_3_I-1-1/ITA_CarpiCentro-5_3_I-1-1.net.xml"/>
    </output>

    <processing>
        <geometry.remove.keep-edges.explicit value="true"/>
        <geometry.avoid-overlap value="true"/>
        <offset.disable-normalization value="true"/>
    </processing>

    <junctions>
        <no-turnarounds value="true"/>
        <junctions.internal-link-detail value="20"/>
    </junctions>

    <report>
        <aggregate-warnings value="5"/>
    </report>

    <random_number>
        <seed value="1234"/>
    </random_number>

</configuration>
--><net xmlns:xsi="http://www.w3.org/2001/XMLSchema-instance" version="1.6" junctionCornerDetail="5" junctionLinkDetail="20" limitTurnSpeed="5.50" xsi:noNamespaceSchemaLocation="http://sumo.dlr.de/xsd/net_file.xsd">

    <location netOffset="0.00,0.00" convBoundary="-452.84,-340.38,-192.75,-51.33" origBoundary="-452.84,-340.38,-190.47,-51.33" projParameter="!"/>

    <type id="highway.bridleway" priority="1" speed="2.78" allow="pedestrian" oneway="1" width="2.00"/>
    <type id="highway.bus_guideway" priority="1" speed="27.78" allow="bus" oneway="1"/>
    <type id="highway.cycleway" priority="1" speed="8.33" allow="bicycle" oneway="0" width="1.00"/>
    <type id="highway.footway" priority="1" speed="2.78" allow="pedestrian" oneway="1" width="2.00"/>
    <type id="highway.ford" priority="1" speed="2.78" allow="army" oneway="0"/>
    <type id="highway.living_street" priority="2" speed="2.78" disallow="tram rail_urban rail rail_electric rail_fast ship" oneway="0"/>
    <type id="highway.motorway" priority="14" speed="39.44" allow="private emergency authority army vip passenger hov taxi bus coach delivery truck trailer motorcycle evehicle custom1 custom2" oneway="1"/>
    <type id="highway.motorway_link" priority="9" speed="22.22" allow="private emergency authority army vip passenger hov taxi bus coach delivery truck trailer motorcycle evehicle custom1 custom2" oneway="1"/>
    <type id="highway.path" priority="1" speed="2.78" allow="pedestrian bicycle" oneway="0" width="2.00"/>
    <type id="highway.pedestrian" priority="1" speed="2.78" allow="pedestrian" oneway="1" width="2.00"/>
    <type id="highway.primary" priority="12" speed="27.78" disallow="pedestrian tram rail_urban rail rail_electric rail_fast ship" oneway="0"/>
    <type id="highway.primary_link" priority="7" speed="22.22" disallow="pedestrian tram rail_urban rail rail_electric rail_fast ship" oneway="0"/>
    <type id="highway.raceway" priority="15" speed="83.33" allow="vip" oneway="0"/>
    <type id="highway.residential" priority="3" speed="13.89" disallow="pedestrian tram rail_urban rail rail_electric rail_fast ship" oneway="0"/>
    <type id="highway.secondary" priority="11" speed="27.78" disallow="pedestrian tram rail_urban rail rail_electric rail_fast ship" oneway="0"/>
    <type id="highway.secondary_link" priority="6" speed="22.22" disallow="pedestrian tram rail_urban rail rail_electric rail_fast ship" oneway="0"/>
    <type id="highway.service" priority="1" speed="5.56" allow="pedestrian delivery bicycle" oneway="0"/>
    <type id="highway.stairs" priority="1" speed="1.39" allow="pedestrian" oneway="1" width="2.00"/>
    <type id="highway.step" priority="1" speed="1.39" allow="pedestrian" oneway="1" width="2.00"/>
    <type id="highway.steps" priority="1" speed="1.39" allow="pedestrian" oneway="1" width="2.00"/>
    <type id="highway.tertiary" priority="10" speed="22.22" disallow="pedestrian tram rail_urban rail rail_electric rail_fast ship" oneway="0"/>
    <type id="highway.tertiary_link" priority="5" speed="22.22" disallow="pedestrian tram rail_urban rail rail_electric rail_fast ship" oneway="0"/>
    <type id="highway.track" priority="1" speed="5.56" allow="pedestrian motorcycle moped bicycle" oneway="0"/>
    <type id="highway.trunk" priority="13" speed="27.78" disallow="pedestrian bicycle tram rail_urban rail rail_electric rail_fast ship" oneway="0"/>
    <type id="highway.trunk_link" priority="8" speed="22.22" disallow="pedestrian bicycle tram rail_urban rail rail_electric rail_fast ship" oneway="0"/>
    <type id="highway.unclassified" priority="4" speed="13.89" disallow="pedestrian tram rail_urban rail rail_electric rail_fast ship" oneway="0"/>
    <type id="highway.unsurfaced" priority="1" speed="8.33" disallow="tram rail_urban rail rail_electric rail_fast ship" oneway="0"/>
    <type id="railway.highspeed" priority="21" speed="69.44" allow="rail_fast" oneway="1"/>
    <type id="railway.light_rail" priority="19" speed="27.78" allow="rail_urban" oneway="1"/>
    <type id="railway.preserved" priority="16" speed="27.78" allow="rail" oneway="1"/>
    <type id="railway.rail" priority="20" speed="44.44" allow="rail" oneway="1"/>
    <type id="railway.subway" priority="18" speed="27.78" allow="rail_urban" oneway="1"/>
    <type id="railway.tram" priority="17" speed="13.89" allow="tram" oneway="1"/>

    <edge id=":21_0" function="internal">
        <lane id=":21_0_0" index="0" disallow="pedestrian tram rail_urban rail rail_electric rail_fast ship" speed="36.11" length="0.10" width="3.50" shape="-205.59,-251.50 -205.59,-251.50"/>
    </edge>
    <edge id=":24_0" function="internal">
        <lane id=":24_0_0" index="0" disallow="pedestrian tram rail_urban rail rail_electric rail_fast ship" speed="36.11" length="2.92" width="3.50" shape="-308.33,-144.99 -308.52,-144.88 -308.69,-144.78 -308.84,-144.69 -308.99,-144.62 -309.12,-144.55 -309.24,-144.49 -309.35,-144.43 -309.46,-144.38 -309.56,-144.33 -309.67,-144.29 -309.78,-144.24 -309.89,-144.20 -310.01,-144.15 -310.13,-144.10 -310.27,-144.04 -310.42,-143.98 -310.58,-143.91 -310.76,-143.83 -310.96,-143.74"/>
    </edge>
    <edge id=":26_0" function="internal">
        <lane id=":26_0_0" index="0" disallow="pedestrian tram rail_urban rail rail_electric rail_fast ship" speed="36.11" length="2.86" width="3.50" shape="-300.89,-169.16 -301.93,-171.82"/>
    </edge>
    <edge id=":32_0" function="internal">
        <lane id=":32_0_0" index="0" disallow="pedestrian tram rail_urban rail rail_electric rail_fast ship" speed="36.11" length="0.21" width="3.50" shape="-311.22,-147.45 -311.03,-147.54"/>
    </edge>
    <edge id=":35_0" function="internal">
        <lane id=":35_0_0" index="0" disallow="pedestrian tram rail_urban rail rail_electric rail_fast ship" speed="36.11" length="3.79" width="3.50" shape="-202.49,-249.11 -205.94,-247.55"/>
    </edge>
    <edge id=":5_0" function="internal">
        <lane id=":5_0_0" index="0" disallow="pedestrian tram rail_urban rail rail_electric rail_fast ship" speed="36.11" length="2.86" width="3.50" shape="-298.68,-173.11 -297.64,-170.45"/>
    </edge>
    <edge id=":55_0" function="internal">
        <lane id=":55_0_0" index="0" disallow="pedestrian tram rail_urban rail rail_electric rail_fast ship" speed="36.11" length="38.47" width="3.50" shape="-229.43,-237.67 -242.82,-231.96 -264.69,-222.30"/>
    </edge>
    <edge id=":55_1" function="internal">
        <lane id=":55_1_0" index="0" disallow="pedestrian tram rail_urban rail rail_electric rail_fast ship" speed="12.15" length="33.96" width="3.50" shape="-229.43,-237.67 -231.79,-236.77 -234.24,-236.05 -236.77,-235.54 -239.38,-235.33 -242.00,-235.47 -243.36,-235.70 -244.67,-236.05 -245.95,-236.50 -247.18,-237.06 -248.35,-237.73 -249.46,-238.49 -250.52,-239.35 -252.36,-241.21 -253.95,-243.27 -255.31,-245.46 -256.95,-248.84"/>
    </edge>
    <edge id=":55_2" function="internal">
        <lane id=":55_2_0" index="0" disallow="pedestrian tram rail_urban rail rail_electric rail_fast ship" speed="11.15" length="28.40" width="3.50" shape="-253.73,-250.21 -252.31,-247.28 -251.16,-245.42 -249.82,-243.69 -248.28,-242.14 -247.43,-241.45 -246.53,-240.83 -245.58,-240.29 -244.59,-239.84 -243.56,-239.47 -242.50,-239.20 -241.42,-239.01 -239.24,-238.89 -237.07,-239.07 -234.92,-239.50 -232.83,-240.12 -230.78,-240.90"/>
    </edge>
    <edge id=":55_3" function="internal">
        <lane id=":55_3_0" index="0" disallow="pedestrian tram rail_urban rail rail_electric rail_fast ship" speed="12.28" length="34.11" width="3.50" shape="-253.73,-250.21 -252.83,-247.85 -252.10,-245.39 -251.59,-242.84 -251.37,-240.21 -251.50,-237.58 -251.73,-236.22 -252.06,-234.90 -252.50,-233.62 -253.06,-232.37 -253.71,-231.18 -254.45,-230.06 -255.30,-228.98 -257.12,-227.10 -259.15,-225.45 -261.33,-224.03 -264.69,-222.30"/>
    </edge>
    <edge id=":55_4" function="internal">
        <lane id=":55_4_0" index="0" disallow="pedestrian tram rail_urban rail rail_electric rail_fast ship" speed="11.29" length="28.64" width="3.50" shape="-266.15,-225.47 -263.22,-226.99 -261.37,-228.20 -259.65,-229.58 -258.12,-231.17 -257.44,-232.04 -256.83,-232.96 -256.30,-233.92 -255.85,-234.93 -255.49,-235.97 -255.22,-237.04 -255.04,-238.13 -254.93,-240.33 -255.11,-242.53 -255.54,-244.69 -256.17,-246.81 -256.95,-248.84"/>
    </edge>
    <edge id=":55_5" function="internal">
        <lane id=":55_5_0" index="0" disallow="pedestrian tram rail_urban rail rail_electric rail_fast ship" speed="36.11" length="38.59" width="3.50" shape="-266.15,-225.47 -244.21,-235.17 -230.78,-240.90"/>
    </edge>
    <edge id=":56_0" function="internal">
        <lane id=":56_0_0" index="0" disallow="pedestrian tram rail_urban rail rail_electric rail_fast ship" speed="11.24" length="28.55" width="3.50" shape="-332.19,-239.38 -333.17,-241.45 -334.29,-243.41 -335.57,-245.22 -337.03,-246.85 -338.69,-248.26 -339.55,-248.82 -340.47,-249.33 -341.44,-249.75 -342.43,-250.09 -343.46,-250.35 -344.51,-250.52 -345.54,-250.61 -347.75,-250.57 -349.94,-250.25 -352.10,-249.72 -355.33,-248.57"/>
    </edge>
    <edge id=":56_1" function="internal">
        <lane id=":56_1_0" index="0" disallow="pedestrian tram rail_urban rail rail_electric rail_fast ship" speed="36.11" length="38.58" width="3.50" shape="-332.19,-239.38 -339.86,-257.09 -347.53,-274.78"/>
    </edge>
    <edge id=":56_2" function="internal">
        <lane id=":56_2_0" index="0" disallow="pedestrian tram rail_urban rail rail_electric rail_fast ship" speed="36.11" length="38.56" width="3.50" shape="-344.32,-276.17 -336.65,-258.48 -328.98,-240.79"/>
    </edge>
    <edge id=":56_3" function="internal">
        <lane id=":56_3_0" index="0" disallow="pedestrian tram rail_urban rail rail_electric rail_fast ship" speed="12.10" length="34.12" width="3.50" shape="-344.31,-276.17 -343.39,-273.82 -342.63,-271.37 -342.09,-268.84 -341.84,-266.22 -341.94,-263.59 -342.15,-262.23 -342.47,-260.91 -342.91,-259.62 -343.47,-258.38 -344.13,-257.19 -344.89,-256.07 -345.75,-255.00 -347.61,-253.15 -349.69,-251.56 -351.90,-250.21 -355.33,-248.57"/>
    </edge>
    <edge id=":56_4" function="internal">
        <lane id=":56_4_0" index="0" disallow="pedestrian tram rail_urban rail rail_electric rail_fast ship" speed="11.09" length="28.48" width="3.50" shape="-356.67,-251.81 -353.70,-253.22 -351.83,-254.36 -350.10,-255.70 -348.54,-257.24 -347.86,-258.09 -347.24,-259.00 -346.71,-259.96 -346.27,-260.96 -345.91,-262.00 -345.65,-263.06 -345.48,-264.14 -345.40,-266.33 -345.61,-268.51 -346.07,-270.65 -346.72,-272.75 -347.53,-274.78"/>
    </edge>
    <edge id=":56_5" function="internal">
        <lane id=":56_5_0" index="0" disallow="pedestrian tram rail_urban rail rail_electric rail_fast ship" speed="12.24" length="34.05" width="3.50" shape="-356.67,-251.81 -352.97,-253.12 -350.42,-253.75 -347.83,-254.11 -345.21,-254.17 -343.91,-254.05 -342.61,-253.84 -341.34,-253.52 -340.10,-253.10 -338.91,-252.57 -337.76,-251.94 -336.67,-251.21 -334.67,-249.52 -332.92,-247.57 -331.41,-245.43 -330.11,-243.16 -328.98,-240.79"/>
    </edge>
    <edge id=":57_0" function="internal">
        <lane id=":57_0_0" index="0" disallow="pedestrian tram rail_urban rail rail_electric rail_fast ship" speed="36.11" length="38.92" width="3.50" shape="-307.35,-183.68 -307.79,-184.59 -314.30,-198.53 -323.42,-219.13"/>
    </edge>
    <edge id=":57_1" function="internal">
        <lane id=":57_1_0" index="0" disallow="pedestrian tram rail_urban rail rail_electric rail_fast ship" speed="12.09" length="34.01" width="3.50" shape="-307.35,-183.68 -308.82,-187.14 -309.58,-189.61 -310.08,-192.18 -310.25,-194.79 -310.19,-196.16 -310.01,-197.50 -309.72,-198.83 -309.31,-200.12 -308.78,-201.38 -308.15,-202.58 -307.41,-203.71 -306.57,-204.80 -304.76,-206.68 -302.73,-208.31 -300.57,-209.72 -297.23,-211.44"/>
    </edge>
    <edge id=":57_2" function="internal">
        <lane id=":57_2_0" index="0" disallow="pedestrian tram rail_urban rail rail_electric rail_fast ship" speed="11.08" length="28.35" width="3.50" shape="-295.79,-208.25 -298.67,-206.77 -300.50,-205.58 -302.20,-204.21 -303.72,-202.64 -304.39,-201.77 -304.98,-200.86 -305.49,-199.89 -305.92,-198.89 -306.25,-197.85 -306.48,-196.78 -306.62,-195.70 -306.67,-194.61 -306.53,-192.43 -306.11,-190.29 -305.47,-188.20 -304.19,-185.18"/>
    </edge>
    <edge id=":57_3" function="internal">
        <lane id=":57_3_0" index="0" disallow="pedestrian tram rail_urban rail rail_electric rail_fast ship" speed="12.10" length="34.07" width="3.50" shape="-295.79,-208.25 -299.30,-206.89 -301.81,-206.20 -304.39,-205.78 -307.01,-205.70 -308.38,-205.80 -309.72,-206.02 -311.04,-206.35 -312.32,-206.80 -313.56,-207.37 -314.75,-208.03 -315.86,-208.79 -316.93,-209.66 -318.77,-211.51 -320.37,-213.57 -321.75,-215.76 -323.42,-219.13"/>
    </edge>
    <edge id=":57_4" function="internal">
        <lane id=":57_4_0" index="0" disallow="pedestrian tram rail_urban rail rail_electric rail_fast ship" speed="11.09" length="28.46" width="3.50" shape="-320.22,-220.55 -318.76,-217.61 -317.60,-215.75 -316.26,-214.02 -314.71,-212.46 -313.86,-211.77 -312.95,-211.16 -312.00,-210.62 -311.00,-210.16 -309.97,-209.80 -308.91,-209.53 -307.82,-209.35 -306.73,-209.26 -304.54,-209.33 -302.38,-209.69 -300.26,-210.26 -297.23,-211.44"/>
    </edge>
    <edge id=":57_5" function="internal">
        <lane id=":57_5_0" index="0" disallow="pedestrian tram rail_urban rail rail_electric rail_fast ship" speed="36.11" length="38.84" width="3.50" shape="-320.22,-220.55 -311.12,-199.99 -304.64,-186.10 -304.19,-185.18"/>
    </edge>
    <edge id=":58_0" function="internal">
        <lane id=":58_0_0" index="0" disallow="pedestrian tram rail_urban rail rail_electric rail_fast ship" speed="12.14" length="34.51" width="3.50" shape="-407.64,-207.64 -409.01,-211.24 -409.68,-213.77 -410.08,-216.39 -410.14,-219.04 -410.02,-220.42 -409.79,-221.77 -409.44,-223.10 -408.97,-224.40 -408.38,-225.64 -407.69,-226.83 -406.90,-227.94 -406.01,-229.01 -404.11,-230.84 -402.00,-232.42 -399.76,-233.77 -396.30,-235.42"/>
    </edge>
    <edge id=":58_1" function="internal">
        <lane id=":58_1_0" index="0" disallow="pedestrian tram rail_urban rail rail_electric rail_fast ship" speed="11.13" length="28.85" width="3.50" shape="-394.96,-232.19 -397.97,-230.76 -399.87,-229.62 -401.64,-228.29 -403.24,-226.75 -403.95,-225.90 -404.59,-224.99 -405.15,-224.03 -405.63,-223.03 -406.01,-221.99 -406.29,-220.92 -406.48,-219.82 -406.58,-218.72 -406.53,-216.50 -406.19,-214.31 -405.62,-212.16 -404.44,-209.05"/>
    </edge>
    <edge id=":58_2" function="internal">
        <lane id=":58_2_0" index="0" disallow="pedestrian tram rail_urban rail rail_electric rail_fast ship" speed="36.11" length="39.31" width="3.50" shape="-394.96,-232.19 -398.77,-230.60 -414.92,-223.62 -430.91,-216.29"/>
    </edge>
    <edge id=":58_3" function="internal">
        <lane id=":58_3_0" index="0" disallow="pedestrian tram rail_urban rail rail_electric rail_fast ship" speed="12.47" length="34.78" width="3.50" shape="-394.96,-232.19 -398.60,-230.88 -401.09,-230.24 -403.64,-229.84 -406.21,-229.71 -408.78,-229.93 -411.28,-230.52 -412.49,-230.96 -413.66,-231.50 -414.79,-232.13 -416.87,-233.65 -418.73,-235.43 -420.36,-237.43 -421.78,-239.58 -423.58,-243.00"/>
    </edge>
    <edge id=":58_4" function="internal">
        <lane id=":58_4_0" index="0" disallow="pedestrian tram rail_urban rail rail_electric rail_fast ship" speed="11.49" length="29.35" width="3.50" shape="-420.40,-244.46 -418.83,-241.47 -417.62,-239.64 -416.24,-237.95 -414.69,-236.46 -412.95,-235.21 -412.06,-234.72 -411.11,-234.28 -410.16,-233.93 -408.08,-233.44 -405.96,-233.27 -403.80,-233.37 -401.63,-233.72 -399.49,-234.27 -396.30,-235.42"/>
    </edge>
    <edge id=":58_5" function="internal">
        <lane id=":58_5_0" index="0" disallow="pedestrian tram rail_urban rail rail_electric rail_fast ship" speed="36.11" length="39.47" width="3.50" shape="-432.40,-219.46 -416.34,-226.82 -400.13,-233.82 -396.30,-235.42"/>
    </edge>
    <edge id=":59_0" function="internal">
        <lane id=":59_0_0" index="0" disallow="pedestrian tram rail_urban rail rail_electric rail_fast ship" speed="12.06" length="34.81" width="3.50" shape="-333.78,-114.80 -335.22,-118.39 -335.96,-120.93 -336.42,-123.55 -336.55,-126.22 -336.45,-127.63 -336.24,-128.99 -335.90,-130.34 -335.44,-131.66 -334.85,-132.93 -334.15,-134.13 -333.35,-135.26 -332.45,-136.33 -330.50,-138.16 -328.35,-139.72 -326.07,-141.04 -322.57,-142.63"/>
    </edge>
    <edge id=":59_1" function="internal">
        <lane id=":59_1_0" index="0" disallow="pedestrian tram rail_urban rail rail_electric rail_fast ship" speed="11.04" length="29.02" width="3.50" shape="-321.26,-139.38 -324.32,-138.00 -326.25,-136.88 -328.05,-135.57 -329.68,-134.04 -330.40,-133.19 -331.05,-132.28 -331.61,-131.32 -332.08,-130.30 -332.45,-129.25 -332.72,-128.17 -332.89,-127.07 -332.97,-125.95 -332.87,-123.72 -332.48,-121.53 -331.86,-119.38 -330.61,-116.28"/>
    </edge>
    <edge id=":59_2" function="internal">
        <lane id=":59_2_0" index="0" disallow="pedestrian tram rail_urban rail rail_electric rail_fast ship" speed="36.11" length="38.50" width="3.50" shape="-321.26,-139.38 -344.56,-130.42 -357.28,-125.79"/>
    </edge>
    <edge id=":59_3" function="internal">
        <lane id=":59_3_0" index="0" disallow="pedestrian tram rail_urban rail rail_electric rail_fast ship" speed="36.11" length="38.33" width="3.50" shape="-358.43,-129.10 -345.77,-133.70 -322.57,-142.63"/>
    </edge>

    <edge id="51766" from="55" to="20" priority="3" type="highway.residential" spreadType="center" length="69.99" shape="-251.89,-236.85 -284.18,-313.32">
        <lane id="51766_0" index="0" disallow="pedestrian tram rail_urban rail rail_electric rail_fast ship" speed="36.11" length="69.99" width="3.50" customShape="1" shape="-256.95,-248.84 -283.71,-312.21 -284.18,-313.32"/>
    </edge>
    <edge id="51767" from="25" to="55" priority="3" type="highway.residential" spreadType="center" length="70.02" shape="-280.96,-314.70 -248.67,-238.21">
        <lane id="51767_0" index="0" disallow="pedestrian tram rail_urban rail rail_electric rail_fast ship" speed="36.11" length="70.02" width="3.50" customShape="1" shape="-280.96,-314.70 -280.49,-313.57 -253.72,-250.20"/>
    </edge>
    <edge id="51813" from="59" to="47" priority="3" type="highway.residential" spreadType="center" length="70.01" shape="-335.74,-128.76 -301.11,-52.79">
        <lane id="51813_0" index="0" disallow="pedestrian tram rail_urban rail rail_electric rail_fast ship" speed="36.11" length="70.01" width="3.50" customShape="1" shape="-330.61,-116.28 -303.78,-58.53 -301.11,-52.79"/>
    </edge>
    <edge id="51814" from="54" to="59" priority="3" type="highway.residential" spreadType="center" length="70.00" shape="-304.29,-51.33 -338.93,-127.31">
        <lane id="51814_0" index="0" disallow="pedestrian tram rail_urban rail rail_electric rail_fast ship" speed="36.11" length="70.00" width="3.50" customShape="1" shape="-304.29,-51.33 -306.95,-57.06 -333.78,-114.81"/>
    </edge>
    <edge id="51819" from="58" to="41" priority="3" type="highway.residential" spreadType="center" length="70.00" shape="-415.40,-225.18 -452.84,-306.59">
        <lane id="51819_0" index="0" disallow="pedestrian tram rail_urban rail rail_electric rail_fast ship" speed="36.11" length="70.00" width="3.50" customShape="1" shape="-423.58,-243.00 -452.84,-306.59"/>
    </edge>
    <edge id="51820" from="52" to="58" priority="3" type="highway.residential" spreadType="center" length="70.00" shape="-449.66,-308.05 -412.22,-226.64">
        <lane id="51820_0" index="0" disallow="pedestrian tram rail_urban rail rail_electric rail_fast ship" speed="36.11" length="70.00" width="3.50" customShape="1" shape="-449.66,-308.05 -420.40,-244.46"/>
    </edge>
    <edge id="51822" from="51" to="58" priority="3" type="highway.residential" spreadType="center" length="62.41" shape="-382.45,-150.54 -415.44,-225.27">
        <lane id="51822_0" index="0" disallow="pedestrian tram rail_urban rail rail_electric rail_fast ship" speed="36.11" length="62.41" width="3.50" customShape="1" shape="-382.45,-150.54 -395.05,-179.09 -407.64,-207.64"/>
    </edge>
    <edge id="51823" from="58" to="42" priority="3" type="highway.residential" spreadType="center" length="62.40" shape="-412.24,-226.68 -379.25,-151.96">
        <lane id="51823_0" index="0" disallow="pedestrian tram rail_urban rail rail_electric rail_fast ship" speed="36.11" length="62.40" width="3.50" customShape="1" shape="-404.44,-209.05 -391.85,-180.51 -379.25,-151.96"/>
    </edge>
    <edge id="51888" from="55" to="57" priority="3" type="highway.residential" spreadType="center" length="34.13" shape="-249.43,-236.04 -307.21,-203.16">
        <lane id="51888_0" index="0" disallow="pedestrian tram rail_urban rail rail_electric rail_fast ship" speed="36.11" length="34.13" width="3.50" customShape="1" shape="-264.69,-222.30 -280.24,-215.28 -295.79,-208.25"/>
    </edge>
    <edge id="51889" from="57" to="55" priority="3" type="highway.residential" spreadType="center" length="34.13" shape="-308.94,-206.20 -251.16,-239.08">
        <lane id="51889_0" index="0" disallow="pedestrian tram rail_urban rail rail_electric rail_fast ship" speed="36.11" length="34.13" width="3.50" customShape="1" shape="-297.23,-211.44 -281.68,-218.47 -266.13,-225.49"/>
    </edge>
    <edge id="51891" from="35" to="55" priority="3" type="highway.residential" spreadType="center" length="25.49" shape="-204.19,-248.29 -249.89,-235.86">
        <lane id="51891_0" index="0" disallow="pedestrian tram rail_urban rail rail_electric rail_fast ship" speed="36.11" length="25.49" width="3.50" customShape="1" shape="-205.94,-247.55 -216.83,-242.97 -229.44,-237.67"/>
    </edge>
    <edge id="51892" from="55" to="21" priority="3" type="highway.residential" spreadType="center" length="27.33" shape="-250.81,-239.23 -205.59,-251.50">
        <lane id="51892_0" index="0" disallow="pedestrian tram rail_urban rail rail_electric rail_fast ship" speed="36.11" length="27.33" width="3.50" customShape="1" shape="-230.78,-240.90 -218.19,-246.20 -205.59,-251.50"/>
    </edge>
    <edge id="51906" from="59" to="32" priority="3" type="highway.residential" spreadType="center" length="12.33" shape="-338.37,-129.40 -311.12,-147.50">
        <lane id="51906_0" index="0" disallow="pedestrian tram rail_urban rail rail_electric rail_fast ship" speed="36.11" length="12.33" width="3.50" customShape="1" shape="-322.57,-142.63 -317.74,-144.57 -311.22,-147.45"/>
    </edge>
    <edge id="51907" from="24" to="59" priority="3" type="highway.residential" spreadType="center" length="11.20" shape="-309.63,-144.33 -336.43,-126.49">
        <lane id="51907_0" index="0" disallow="pedestrian tram rail_urban rail rail_electric rail_fast ship" speed="36.11" length="11.20" width="3.50" customShape="1" shape="-310.96,-143.74 -316.37,-141.35 -321.27,-139.38"/>
    </edge>
    <edge id="51909" from="53" to="59" priority="3" type="highway.residential" spreadType="center" length="8.78" shape="-366.71,-126.22 -337.43,-129.74">
        <lane id="51909_0" index="0" disallow="pedestrian tram rail_urban rail rail_electric rail_fast ship" speed="36.11" length="8.78" width="3.50" customShape="1" shape="-366.71,-126.22 -362.56,-127.66 -358.42,-129.10"/>
    </edge>
    <edge id="51910" from="59" to="46" priority="3" type="highway.residential" spreadType="center" length="8.73" shape="-337.01,-126.28 -365.53,-122.93">
        <lane id="51910_0" index="0" disallow="pedestrian tram rail_urban rail rail_electric rail_fast ship" speed="36.11" length="8.73" width="3.50" customShape="1" shape="-357.28,-125.79 -361.41,-124.36 -365.53,-122.93"/>
    </edge>
    <edge id="52007" from="58" to="56" priority="3" type="highway.residential" spreadType="center" length="42.89" shape="-414.54,-227.53 -344.85,-256.86">
        <lane id="52007_0" index="0" disallow="pedestrian tram rail_urban rail rail_electric rail_fast ship" speed="36.11" length="42.89" width="3.50" customShape="1" shape="-396.30,-235.42 -376.48,-243.61 -356.67,-251.81"/>
    </edge>
    <edge id="52008" from="56" to="58" priority="3" type="highway.residential" spreadType="center" length="42.88" shape="-343.49,-253.64 -413.19,-224.31">
        <lane id="52008_0" index="0" disallow="pedestrian tram rail_urban rail rail_electric rail_fast ship" speed="36.11" length="42.88" width="3.50" customShape="1" shape="-355.33,-248.57 -375.15,-240.38 -394.96,-232.19"/>
    </edge>
    <edge id="52010" from="50" to="58" priority="3" type="highway.residential" spreadType="center" length="14.28" shape="-445.32,-213.37 -414.48,-227.56">
        <lane id="52010_0" index="0" disallow="pedestrian tram rail_urban rail rail_electric rail_fast ship" speed="36.11" length="14.28" width="3.50" customShape="1" shape="-445.32,-213.37 -438.87,-216.41 -432.40,-219.46"/>
    </edge>
    <edge id="52011" from="58" to="44" priority="3" type="highway.residential" spreadType="center" length="14.30" shape="-413.02,-224.39 -443.84,-210.19">
        <lane id="52011_0" index="0" disallow="pedestrian tram rail_urban rail rail_electric rail_fast ship" speed="36.11" length="14.30" width="3.50" customShape="1" shape="-430.91,-216.29 -437.38,-213.24 -443.84,-210.19"/>
    </edge>
    <edge id="52094" from="56" to="19" priority="3" type="highway.residential" spreadType="center" length="70.00" shape="-345.81,-254.64 -375.36,-339.01">
        <lane id="52094_0" index="0" disallow="pedestrian tram rail_urban rail rail_electric rail_fast ship" speed="36.11" length="70.00" width="3.50" customShape="1" shape="-347.53,-274.78 -362.85,-310.15 -375.36,-339.01"/>
    </edge>
    <edge id="52095" from="33" to="56" priority="3" type="highway.residential" spreadType="center" length="69.99" shape="-372.14,-340.38 -342.51,-255.79">
        <lane id="52095_0" index="0" disallow="pedestrian tram rail_urban rail rail_electric rail_fast ship" speed="36.11" length="69.99" width="3.50" customShape="1" shape="-372.14,-340.38 -359.64,-311.54 -344.31,-276.16"/>
    </edge>
    <edge id="52097" from="57" to="56" priority="3" type="highway.residential" spreadType="center" length="22.09" shape="-309.43,-203.65 -345.59,-254.23">
        <lane id="52097_0" index="0" disallow="pedestrian tram rail_urban rail rail_electric rail_fast ship" speed="36.11" length="22.09" width="3.50" customShape="1" shape="-323.42,-219.13 -327.81,-229.28 -332.19,-239.40"/>
    </edge>
    <edge id="52098" from="56" to="57" priority="3" type="highway.residential" spreadType="center" length="22.09" shape="-342.74,-256.27 -306.58,-205.68">
        <lane id="52098_0" index="0" disallow="pedestrian tram rail_urban rail rail_electric rail_fast ship" speed="36.11" length="22.09" width="3.50" customShape="1" shape="-328.98,-240.79 -324.60,-230.67 -320.20,-220.52"/>
    </edge>
    <edge id="52100" from="26" to="57" priority="3" type="highway.residential" spreadType="center" length="13.05" shape="-301.37,-170.50 -309.75,-204.37">
        <lane id="52100_0" index="0" disallow="pedestrian tram rail_urban rail rail_electric rail_fast ship" speed="36.11" length="13.05" width="3.50" customShape="1" shape="-301.93,-171.82 -303.17,-174.76 -307.36,-183.69"/>
    </edge>
    <edge id="52101" from="57" to="5" priority="3" type="highway.residential" spreadType="center" length="13.27" shape="-306.36,-205.21 -298.12,-171.80">
        <lane id="52101_0" index="0" disallow="pedestrian tram rail_urban rail rail_electric rail_fast ship" speed="36.11" length="13.27" width="3.50" customShape="1" shape="-304.19,-185.18 -299.96,-176.16 -298.68,-173.11"/>
    </edge>
    <edge id="52213" from="49" to="35" priority="3" type="highway.residential" spreadType="center" length="32.04">
        <lane id="52213_0" index="0" disallow="pedestrian tram rail_urban rail rail_electric rail_fast ship" speed="36.11" length="32.04" width="3.50" customShape="1" shape="-192.75,-275.62 -192.28,-274.45 -191.46,-272.06 -190.83,-269.56 -190.48,-266.97 -190.47,-264.36 -190.61,-262.99 -190.87,-261.67 -191.24,-260.36 -191.72,-259.10 -192.32,-257.88 -193.01,-256.72 -193.80,-255.63 -194.68,-254.59 -196.56,-252.80 -198.63,-251.24 -200.83,-249.90 -202.49,-249.11"/>
    </edge>
    <edge id="52236" from="32" to="26" priority="3" type="highway.residential" spreadType="center" length="26.82">