<routes>
	<vehicle depart="0.1" departLane="0" departPos="34.02245553794616" departSpeed="0.0" id="39" type="bicycle">
		<route edges="51888 52097"/>
	</vehicle>
	<vehicle depart="0.1" departLane="0" departPos="42.78267898844358" departSpeed="0.0" id="311" type="passenger">
		<route edges="52007 52094"/>
	</vehicle>
	<vehicle depart="0.1" departLane="0" departPos="35.321314531273146" departSpeed="0.0" id="314" type="passenger">
		<route edges="52007 52094"/>
	</vehicle>
	<vehicle depart="0.1" departLane="0" departPos="21.154670801586832" departSpeed="9.0133939" id="358" type="passenger">
		<route edges=":56_3 52008 52011"/>
	</vehicle>
	<vehicle depart="0.1" departLane="0" departPos="57.20458782996901" departSpeed="14.229392" id="365" type="passenger">
		<route edges="52095 52098"/>
	</vehicle>
	<vehicle depart="0.1" departLane="0" departPos="36.39709884610217" departSpeed="10.474097" id="380" type="passenger">
		<route edges="52095 52008"/>
	</vehicle>
	<vehicle depart="0.1" departLane="0" departPos="20.261602427373163" departSpeed="11.706293" id="348" type="motorcycle">
		<route edges=":57_4 51889 51766"/>
	</vehicle>
</routes>
