<routes>
	<vehicle depart="0.1" departLane="0" departPos="62.67151101420861" departSpeed="0.34629854" id="311" type="bicycle">
		<route edges="4507 4624"/>
	</vehicle>
	<vehicle depart="0.1" departLane="0" departPos="24.442023791177192" departSpeed="0.86419357" id="339" type="bicycle">
		<route edges="4627 4508"/>
	</vehicle>
	<vehicle depart="0.1" departLane="0" departPos="6.647644385057544" departSpeed="0.026629095" id="36" type="passenger">
		<route edges=":33_9 4508"/>
	</vehicle>
	<vehicle depart="0.1" departLane="0" departPos="69.00541410424884" departSpeed="0.0" id="39" type="passenger">
		<route edges="4507 4624"/>
	</vehicle>
	<vehicle depart="0.1" departLane="0" departPos="2.5" departSpeed="2.7205838" id="312" type="passenger">
		<route edges=":33_3 4504"/>
	</vehicle>
	<vehicle depart="0.1" departLane="0" departPos="18.231114693843125" departSpeed="1.787445" id="324" type="passenger">
		<route edges=":33_9 4508"/>
	</vehicle>
	<vehicle depart="0.1" departLane="0" departPos="51.7819839481981" departSpeed="3.3607981" id="329" type="passenger">
		<route edges="4627 4508"/>
	</vehicle>
	<vehicle depart="0.1" departLane="0" departPos="43.184082881435266" departSpeed="2.6081531" id="336" type="passenger">
		<route edges="4627 4508"/>
	</vehicle>
	<vehicle depart="0.1" departLane="0" departPos="35.38590414219826" departSpeed="1.8171948" id="348" type="passenger">
		<route edges="4627 4508"/>
	</vehicle>
	<vehicle depart="0.1" departLane="0" departPos="8.355448823724009" departSpeed="12.278727" id="328" type="motorcycle">
		<route edges=":33_0 4624"/>
	</vehicle>
</routes>
