<routes>
	<vehicle depart="0.1" departLane="0" departPos="112.86386047529535" departSpeed="10.0" id="200" type="passenger">
		<route edges="49564 49586 49568"/>
	</vehicle>
	<vehicle depart="0.1" departLane="0" departPos="177.6102410290729" departSpeed="12.0" id="201" type="passenger">
		<route edges="49570 49580 49572"/>
	</vehicle>
	<vehicle depart="0.1" departLane="0" departPos="109.96215100301848" departSpeed="10.0" id="202" type="passenger">
		<route edges="49578 49584 49600 49584 49566"/>
	</vehicle>
	<vehicle depart="0.1" departLane="0" departPos="84.32494378865347" departSpeed="9.0" id="203" type="passenger">
		<route edges="49578 49584 49600 49584 49566"/>
	</vehicle>
</routes>
