<!-- generated on 2020-12-18 15:39:25.979461 by ipykernel_launcher.py v1_2_0+5214-53edc58fcd
-->
<nodes>
	<node id="1" type="from" x="-86.83439999999999" y="4.6787"/>
	<node id="2" type="to" x="55.6413" y="0.34420000000000006"/>
	<node id="3" type="from" x="55.549499999999995" y="5.39515"/>
	<node id="4" type="to" x="-86.2699" y="10.26125"/>
	<node id="5" type="from" x="67.28145" y="-8.932849999999998"/>
	<node id="6" type="to" x="51.503550000000004" y="-184.4613"/>
	<node id="7" type="from" x="55.486599999999996" y="-186.11720000000003"/>
	<node id="8" type="to" x="70.82235" y="-9.298449999999999"/>
	<node id="9" type="from" x="81.8381" y="4.3093"/>
	<node id="10" type="to" x="196.82615" y="-9.985700000000001"/>
	<node id="11" type="from" x="197.25065" y="-6.2964"/>
	<node id="12" type="to" x="82.70815" y="8.81175"/>
	<node id="13" type="from" x="69.76855" y="19.52815"/>
	<node id="14" type="to" x="64.87349999999999" y="129.45069999999998"/>
	<node id="15" type="from" x="61.53305" y="129.18259999999998"/>
	<node id="16" type="to" x="66.5476" y="19.33795"/>
</nodes>
