<!-- generated on Tue Feb  9 22:04:53 2021 by Eclipse SUMO netconvert Version 1.8.0
<configuration xmlns:xsi="http://www.w3.org/2001/XMLSchema-instance" xsi:noNamespaceSchemaLocation="http://sumo.dlr.de/xsd/netconvertConfiguration.xsd">

    <input>
        <node-files value="./converted_scenarios/scenario-factory/HRV_Pula-19_4_I-1-1/HRV_Pula-19_4_I-1-1.nod.xml"/>
        <edge-files value="./converted_scenarios/scenario-factory/HRV_Pula-19_4_I-1-1/HRV_Pula-19_4_I-1-1.edg.xml"/>
        <connection-files value="./converted_scenarios/scenario-factory/HRV_Pula-19_4_I-1-1/HRV_Pula-19_4_I-1-1.con.xml"/>
        <tllogic-files value="./converted_scenarios/scenario-factory/HRV_Pula-19_4_I-1-1/HRV_Pula-19_4_I-1-1.tll.xml"/>
        <type-files value="/home/zen/commonroad-interactive-benchmarks/install/commonroad-map-tool/crmapconverter/sumo_map/templates/DEU.typ.xml"/>
    </input>

    <output>
        <output-file value="./converted_scenarios/scenario-factory/HRV_Pula-19_4_I-1-1/HRV_Pula-19_4_I-1-1.net.xml"/>
    </output>

    <processing>
        <geometry.remove.keep-edges.explicit value="true"/>
        <geometry.avoid-overlap value="true"/>
        <offset.disable-normalization value="true"/>
    </processing>

    <junctions>
        <no-turnarounds value="true"/>
        <junctions.internal-link-detail value="20"/>
    </junctions>

    <report>
        <aggregate-warnings value="5"/>
    </report>

    <random_number>
        <seed value="1234"/>
    </random_number>

</configuration>
--><net xmlns:xsi="http://www.w3.org/2001/XMLSchema-instance" version="1.6" junctionCornerDetail="5" junctionLinkDetail="20" limitTurnSpeed="5.50" xsi:noNamespaceSchemaLocation="http://sumo.dlr.de/xsd/net_file.xsd">

    <location netOffset="0.00,0.00" convBoundary="327.99,-157.99,488.91,155.83" origBoundary="327.99,-157.99,488.91,155.83" projParameter="!"/>

    <type id="highway.bridleway" priority="1" speed="2.78" allow="pedestrian" oneway="1" width="2.00"/>
    <type id="highway.bus_guideway" priority="1" speed="27.78" allow="bus" oneway="1"/>
    <type id="highway.cycleway" priority="1" speed="8.33" allow="bicycle" oneway="0" width="1.00"/>
    <type id="highway.footway" priority="1" speed="2.78" allow="pedestrian" oneway="1" width="2.00"/>
    <type id="highway.ford" priority="1" speed="2.78" allow="army" oneway="0"/>
    <type id="highway.living_street" priority="2" speed="2.78" disallow="tram rail_urban rail rail_electric rail_fast ship" oneway="0"/>
    <type id="highway.motorway" priority="14" speed="39.44" allow="private emergency authority army vip passenger hov taxi bus coach delivery truck trailer motorcycle evehicle custom1 custom2" oneway="1"/>
    <type id="highway.motorway_link" priority="9" speed="22.22" allow="private emergency authority army vip passenger hov taxi bus coach delivery truck trailer motorcycle evehicle custom1 custom2" oneway="1"/>
    <type id="highway.path" priority="1" speed="2.78" allow="pedestrian bicycle" oneway="0" width="2.00"/>
    <type id="highway.pedestrian" priority="1" speed="2.78" allow="pedestrian" oneway="1" width="2.00"/>
    <type id="highway.primary" priority="12" speed="27.78" disallow="pedestrian tram rail_urban rail rail_electric rail_fast ship" oneway="0"/>
    <type id="highway.primary_link" priority="7" speed="22.22" disallow="pedestrian tram rail_urban rail rail_electric rail_fast ship" oneway="0"/>
    <type id="highway.raceway" priority="15" speed="83.33" allow="vip" oneway="0"/>
    <type id="highway.residential" priority="3" speed="13.89" disallow="pedestrian tram rail_urban rail rail_electric rail_fast ship" oneway="0"/>
    <type id="highway.secondary" priority="11" speed="27.78" disallow="pedestrian tram rail_urban rail rail_electric rail_fast ship" oneway="0"/>
    <type id="highway.secondary_link" priority="6" speed="22.22" disallow="pedestrian tram rail_urban rail rail_electric rail_fast ship" oneway="0"/>
    <type id="highway.service" priority="1" speed="5.56" allow="pedestrian delivery bicycle" oneway="0"/>
    <type id="highway.stairs" priority="1" speed="1.39" allow="pedestrian" oneway="1" width="2.00"/>
    <type id="highway.step" priority="1" speed="1.39" allow="pedestrian" oneway="1" width="2.00"/>
    <type id="highway.steps" priority="1" speed="1.39" allow="pedestrian" oneway="1" width="2.00"/>
    <type id="highway.tertiary" priority="10" speed="22.22" disallow="pedestrian tram rail_urban rail rail_electric rail_fast ship" oneway="0"/>
    <type id="highway.tertiary_link" priority="5" speed="22.22" disallow="pedestrian tram rail_urban rail rail_electric rail_fast ship" oneway="0"/>
    <type id="highway.track" priority="1" speed="5.56" allow="pedestrian motorcycle moped bicycle" oneway="0"/>
    <type id="highway.trunk" priority="13" speed="27.78" disallow="pedestrian bicycle tram rail_urban rail rail_electric rail_fast ship" oneway="0"/>
    <type id="highway.trunk_link" priority="8" speed="22.22" disallow="pedestrian bicycle tram rail_urban rail rail_electric rail_fast ship" oneway="0"/>
    <type id="highway.unclassified" priority="4" speed="13.89" disallow="pedestrian tram rail_urban rail rail_electric rail_fast ship" oneway="0"/>
    <type id="highway.unsurfaced" priority="1" speed="8.33" disallow="tram rail_urban rail rail_electric rail_fast ship" oneway="0"/>
    <type id="railway.highspeed" priority="21" speed="69.44" allow="rail_fast" oneway="1"/>
    <type id="railway.light_rail" priority="19" speed="27.78" allow="rail_urban" oneway="1"/>
    <type id="railway.preserved" priority="16" speed="27.78" allow="rail" oneway="1"/>
    <type id="railway.rail" priority="20" speed="44.44" allow="rail" oneway="1"/>
    <type id="railway.subway" priority="18" speed="27.78" allow="rail_urban" oneway="1"/>
    <type id="railway.tram" priority="17" speed="13.89" allow="tram" oneway="1"/>

    <edge id=":33_0" function="internal">
        <lane id=":33_0_0" index="0" disallow="pedestrian tram rail_urban rail rail_electric rail_fast ship" speed="12.24" length="32.65" width="3.50" shape="419.76,-47.03 419.49,-48.09 418.48,-51.33 417.18,-54.42 416.14,-56.33 414.94,-58.13 413.55,-59.78 412.00,-61.23 410.28,-62.46 408.41,-63.44 406.42,-64.18 404.33,-64.68 402.18,-64.95 400.01,-65.01 396.66,-64.78"/>
    </edge>
    <edge id=":33_1" function="internal">
        <lane id=":33_1_0" index="0" disallow="pedestrian tram rail_urban rail rail_electric rail_fast ship" speed="36.11" length="42.04" width="3.50" shape="419.76,-47.03 417.19,-58.00 413.74,-74.02 411.06,-88.15"/>
    </edge>
    <edge id=":33_2" function="internal">
        <lane id=":33_2_0" index="0" disallow="pedestrian tram rail_urban rail rail_electric rail_fast ship" speed="11.74" length="36.05" width="3.50" shape="419.76,-47.03 419.22,-49.62 418.87,-52.28 418.76,-54.99 418.97,-57.72 419.24,-59.13 419.63,-60.51 420.15,-61.85 420.82,-63.15 421.63,-64.37 422.57,-65.49 423.63,-66.49 424.78,-67.37 425.99,-68.12 427.25,-68.76 428.57,-69.30 431.17,-70.07 433.84,-70.57 437.80,-70.90"/>
    </edge>
    <edge id=":33_3" function="internal">
        <lane id=":33_3_0" index="0" disallow="pedestrian tram rail_urban rail rail_electric rail_fast ship" speed="10.69" length="29.69" width="3.50" shape="437.93,-67.41 434.51,-67.12 432.27,-66.70 430.08,-66.05 429.03,-65.61 428.01,-65.10 427.04,-64.50 426.13,-63.80 425.30,-63.02 424.57,-62.15 423.94,-61.20 423.41,-60.18 423.00,-59.12 422.69,-58.02 422.48,-56.90 422.30,-54.62 422.40,-52.34 422.70,-50.08 423.16,-47.83"/>
    </edge>
    <edge id=":33_4" function="internal">
        <lane id=":33_4_0" index="0" disallow="pedestrian tram rail_urban rail rail_electric rail_fast ship" speed="36.11" length="41.36" width="3.50" shape="437.93,-67.41 419.34,-66.59 405.93,-65.70 396.66,-64.78"/>
    </edge>
    <edge id=":33_5" function="internal">
        <lane id=":33_5_0" index="0" disallow="pedestrian tram rail_urban rail rail_electric rail_fast ship" speed="13.51" length="37.82" width="3.50" shape="437.93,-67.41 434.15,-67.43 430.39,-67.82 427.92,-68.32 425.50,-69.04 423.18,-70.01 420.98,-71.25 418.96,-72.75 417.15,-74.50 415.57,-76.47 414.24,-78.61 413.14,-80.87 412.26,-83.24 411.30,-86.89 411.06,-88.15"/>
    </edge>
    <edge id=":33_6" function="internal">
        <lane id=":33_6_0" index="0" disallow="pedestrian tram rail_urban rail rail_electric rail_fast ship" speed="12.60" length="32.75" width="3.50" shape="414.51,-88.75 414.71,-87.66 415.57,-84.40 416.34,-82.36 417.28,-80.40 418.43,-78.58 419.76,-76.92 421.30,-75.44 423.01,-74.18 424.87,-73.14 426.87,-72.31 428.95,-71.69 431.10,-71.26 434.44,-70.92 437.80,-70.90"/>
    </edge>
    <edge id=":33_7" function="internal">
        <lane id=":33_7_0" index="0" disallow="pedestrian tram rail_urban rail rail_electric rail_fast ship" speed="36.11" length="41.83" width="3.50" shape="414.51,-88.75 417.17,-74.71 420.61,-58.76 423.16,-47.83"/>
    </edge>
    <edge id=":33_8" function="internal">
        <lane id=":33_8_0" index="0" disallow="pedestrian tram rail_urban rail rail_electric rail_fast ship" speed="12.15" length="34.71" width="3.50" shape="414.51,-88.75 414.99,-84.76 415.05,-82.09 414.82,-79.44 414.25,-76.83 413.82,-75.57 413.28,-74.35 412.64,-73.18 411.89,-72.07 411.05,-71.04 410.11,-70.10 409.09,-69.24 408.00,-68.46 405.66,-67.17 403.18,-66.19 400.62,-65.47 396.66,-64.78"/>
    </edge>
    <edge id=":33_9" function="internal">
        <lane id=":33_9_0" index="0" disallow="pedestrian tram rail_urban rail rail_electric rail_fast ship" speed="11.14" length="29.02" width="3.50" shape="396.15,-68.24 399.68,-68.85 401.86,-69.47 403.94,-70.29 405.89,-71.37 406.75,-71.98 407.57,-72.67 408.32,-73.42 408.99,-74.23 409.58,-75.11 410.09,-76.04 410.52,-77.02 410.86,-78.01 411.34,-80.19 411.53,-82.41 411.49,-84.67 411.06,-88.15"/>
    </edge>
    <edge id=":33_10" function="internal">
        <lane id=":33_10_0" index="0" disallow="pedestrian tram rail_urban rail rail_electric rail_fast ship" speed="36.11" length="41.75" width="3.50" shape="396.15,-68.24 405.61,-69.19 419.11,-70.09 437.80,-70.90"/>
    </edge>
    <edge id=":33_11" function="internal">
        <lane id=":33_11_0" index="0" disallow="pedestrian tram rail_urban rail rail_electric rail_fast ship" speed="13.16" length="37.90" width="3.50" shape="396.15,-68.25 400.02,-68.52 402.54,-68.45 405.04,-68.14 407.49,-67.56 409.86,-66.70 412.09,-65.53 414.15,-64.08 416.00,-62.37 417.63,-60.45 419.04,-58.36 420.25,-56.15 421.73,-52.67 422.85,-49.06 423.16,-47.83"/>
    </edge>
    <edge id=":34_0" function="internal">
        <lane id=":34_0_0" index="0" disallow="pedestrian tram rail_urban rail rail_electric rail_fast ship" speed="10.74" length="28.73" width="3.50" shape="429.05,85.93 428.56,82.65 428.02,80.50 427.25,78.43 426.22,76.47 425.59,75.56 424.89,74.71 424.10,73.92 423.25,73.22 422.33,72.61 421.35,72.09 420.33,71.67 419.27,71.34 417.10,70.92 414.89,70.80 412.68,70.90 409.43,71.38"/>
    </edge>
    <edge id=":34_1" function="internal">
        <lane id=":34_1_0" index="0" disallow="pedestrian tram rail_urban rail rail_electric rail_fast ship" speed="36.11" length="38.39" width="3.50" shape="429.05,85.93 427.94,72.49 427.20,59.02 426.87,47.61"/>
    </edge>
    <edge id=":34_2" function="internal">
        <lane id=":34_2_0" index="0" disallow="pedestrian tram rail_urban rail rail_electric rail_fast ship" speed="36.11" length="38.11" width="3.50" shape="430.37,47.54 430.70,58.87 431.43,72.25 432.53,85.58"/>
    </edge>
    <edge id=":34_3" function="internal">
        <lane id=":34_3_0" index="0" disallow="pedestrian tram rail_urban rail rail_electric rail_fast ship" speed="13.30" length="35.00" width="3.50" shape="430.37,47.54 430.31,50.01 430.06,52.48 429.56,54.94 428.79,57.35 427.73,59.67 426.37,61.84 424.74,63.80 422.87,65.54 420.83,67.02 418.66,68.28 416.40,69.32 412.94,70.52 409.43,71.38"/>
    </edge>
    <edge id=":34_4" function="internal">
        <lane id=":34_4_0" index="0" disallow="pedestrian tram rail_urban rail rail_electric rail_fast ship" speed="12.37" length="30.13" width="3.50" shape="408.70,67.96 411.84,67.19 414.89,66.14 416.85,65.25 418.72,64.18 420.47,62.92 422.05,61.47 423.44,59.82 424.60,58.00 425.50,56.05 426.17,54.01 426.60,51.90 426.82,49.76 426.87,47.61"/>
    </edge>
    <edge id=":34_5" function="internal">
        <lane id=":34_5_0" index="0" disallow="pedestrian tram rail_urban rail rail_electric rail_fast ship" speed="11.77" length="34.74" width="3.50" shape="408.70,67.96 412.51,67.39 415.14,67.27 417.79,67.42 420.40,67.92 421.74,68.34 423.02,68.87 424.25,69.53 425.41,70.30 426.49,71.18 427.48,72.17 428.36,73.23 429.16,74.39 430.40,76.75 431.32,79.24 431.97,81.79 432.53,85.58"/>
    </edge>
    <edge id=":35_0" function="internal">
        <lane id=":35_0_0" index="0" disallow="pedestrian tram rail_urban rail rail_electric rail_fast ship" speed="10.58" length="29.81" width="3.50" shape="426.46,24.84 426.23,21.40 425.86,19.14 425.25,16.93 424.83,15.86 424.34,14.83 423.75,13.84 423.07,12.92 422.30,12.07 421.43,11.32 420.48,10.68 419.47,10.14 418.40,9.73 417.30,9.41 416.17,9.20 413.88,9.03 411.59,9.13 409.32,9.44 407.08,9.92"/>
    </edge>
    <edge id=":35_1" function="internal">
        <lane id=":35_1_0" index="0" disallow="pedestrian tram rail_urban rail rail_electric rail_fast ship" speed="36.11" length="39.97" width="3.50" shape="426.46,24.84 425.98,8.46 425.16,-6.89 424.55,-15.08"/>
    </edge>
    <edge id=":35_2" function="internal">
        <lane id=":35_2_0" index="0" disallow="pedestrian tram rail_urban rail rail_electric rail_fast ship" speed="36.11" length="40.19" width="3.50" shape="428.04,-15.40 428.65,-7.12 429.48,8.31 429.96,24.74"/>
    </edge>
    <edge id=":35_3" function="internal">
        <lane id=":35_3_0" index="0" disallow="pedestrian tram rail_urban rail rail_electric rail_fast ship" speed="13.33" length="36.44" width="3.50" shape="428.04,-15.40 428.15,-12.83 428.04,-10.33 427.68,-7.84 427.05,-5.41 426.12,-3.08 424.89,-0.90 423.38,1.11 421.63,2.90 419.68,4.48 417.57,5.86 415.36,7.03 411.88,8.48 408.29,9.61 407.08,9.92"/>
    </edge>
    <edge id=":35_4" function="internal">
        <lane id=":35_4_0" index="0" disallow="pedestrian tram rail_urban rail rail_electric rail_fast ship" speed="12.40" length="31.43" width="3.50" shape="406.24,6.52 407.31,6.25 410.54,5.24 413.63,3.96 415.56,2.95 417.39,1.77 419.06,0.43 420.56,-1.07 421.84,-2.75 422.89,-4.57 423.68,-6.52 424.23,-8.57 424.55,-10.70 424.65,-12.87 424.55,-15.08"/>
    </edge>
    <edge id=":35_5" function="internal">
        <lane id=":35_5_0" index="0" disallow="pedestrian tram rail_urban rail rail_electric rail_fast ship" speed="11.62" length="36.25" width="3.50" shape="406.24,6.52 408.85,5.97 411.52,5.60 414.26,5.48 417.00,5.69 418.43,5.96 419.81,6.35 421.16,6.88 422.47,7.56 423.69,8.39 424.80,9.36 425.80,10.44 426.66,11.61 427.39,12.85 428.01,14.13 428.52,15.47 429.25,18.10 429.69,20.79 429.96,24.74"/>
    </edge>

    <edge id="21574" from="14" to="35" priority="3" type="highway.residential" spreadType="center" length="70.00" shape="338.26,23.16 420.03,4.22">
        <lane id="21574_0" index="0" disallow="pedestrian tram rail_urban rail rail_electric rail_fast ship" speed="36.11" length="70.00" width="3.50" customShape="1" shape="338.26,23.16 360.51,17.72 406.25,6.52"/>
    </edge>
    <edge id="21575" from="35" to="7" priority="3" type="highway.residential" spreadType="center" length="70.01" shape="420.82,7.63 339.08,26.57">
        <lane id="21575_0" index="0" disallow="pedestrian tram rail_urban rail rail_electric rail_fast ship" speed="36.11" length="70.01" width="3.50" customShape="1" shape="407.08,9.92 361.34,21.12 339.08,26.57"/>
    </edge>
    <edge id="21618" from="33" to="19" priority="3" type="highway.residential" spreadType="center" length="69.99" shape="415.42,-67.58 401.05,-157.39">
        <lane id="21618_0" index="0" disallow="pedestrian tram rail_urban rail rail_electric rail_fast ship" speed="36.11" length="69.99" width="3.50" customShape="1" shape="411.06,-88.15 408.35,-103.54 405.12,-122.96 403.06,-137.45 401.60,-150.49 401.05,-157.39"/>
    </edge>
    <edge id="21619" from="31" to="33" priority="3" type="highway.residential" spreadType="center" length="70.00" shape="404.51,-157.99 418.87,-68.13">
        <lane id="21619_0" index="0" disallow="pedestrian tram rail_urban rail rail_electric rail_fast ship" speed="36.11" length="70.00" width="3.50" customShape="1" shape="404.51,-157.99 405.08,-150.80 406.54,-137.85 408.58,-123.44 411.81,-104.10 414.51,-88.74"/>
    </edge>
    <edge id="21621" from="35" to="33" priority="3" type="highway.residential" spreadType="center" length="32.39" shape="418.64,6.05 415.39,-67.81">
        <lane id="21621_0" index="0" disallow="pedestrian tram rail_urban rail rail_electric rail_fast ship" speed="36.11" length="32.39" width="3.50" customShape="1" shape="424.55,-15.08 423.82,-23.11 422.77,-31.64 421.50,-39.12 419.75,-47.08"/>
    </edge>
    <edge id="21622" from="33" to="35" priority="3" type="highway.residential" spreadType="center" length="32.89" shape="418.89,-67.96 422.14,5.90">
        <lane id="21622_0" index="0" disallow="pedestrian tram rail_urban rail rail_electric rail_fast ship" speed="36.11" length="32.89" width="3.50" customShape="1" shape="423.16,-47.83 424.93,-39.80 426.23,-32.18 427.30,-23.51 428.04,-15.34"/>
    </edge>
    <edge id="21624" from="34" to="35" priority="3" type="highway.residential" spreadType="center" length="22.81" shape="421.08,67.74 418.64,5.95">
        <lane id="21624_0" index="0" disallow="pedestrian tram rail_urban rail rail_electric rail_fast ship" speed="36.11" length="22.81" width="3.50" customShape="1" shape="426.87,47.61 426.66,36.22 426.46,24.80"/>
    </edge>
    <edge id="21625" from="35" to="34" priority="3" type="highway.residential" spreadType="center" length="22.82" shape="422.14,5.81 424.58,67.60">
        <lane id="21625_0" index="0" disallow="pedestrian tram rail_urban rail rail_electric rail_fast ship" speed="36.11" length="22.82" width="3.50" customShape="1" shape="429.96,24.74 430.16,36.16 430.37,47.56"/>
    </edge>
    <edge id="21627" from="32" to="34" priority="3" type="highway.residential" spreadType="center" length="70.04" shape="430.95,155.83 421.09,67.83">
        <lane id="21627_0" index="0" disallow="pedestrian tram rail_urban rail rail_electric rail_fast ship" speed="36.11" length="70.04" width="3.50" customShape="1" shape="430.95,155.83 431.09,143.90 431.50,122.88 431.31,115.37 430.60,103.38 429.04,85.89"/>
    </edge>
    <edge id="21628" from="34" to="27" priority="3" type="highway.residential" spreadType="center" length="70.00" shape="424.56,67.44 434.46,155.48">
        <lane id="21628_0" index="0" disallow="pedestrian tram rail_urban rail rail_electric rail_fast ship" speed="36.11" length="70.00" width="3.50" customShape="1" shape="432.53,85.58 434.09,103.15 434.81,115.25 435.00,122.85 434.59,143.99 434.46,155.48"/>
    </edge>
    <edge id="21665" from="33" to="20" priority="3" type="highway.residential" spreadType="center" length="51.02" shape="417.02,-69.63 488.79,-72.70">
        <lane id="21665_0" index="0" disallow="pedestrian tram rail_urban rail rail_electric rail_fast ship" speed="36.11" length="51.02" width="3.50" customShape="1" shape="437.80,-70.90 463.30,-71.80 488.79,-72.70"/>
    </edge>
    <edge id="21666" from="28" to="33" priority="3" type="highway.residential" spreadType="center" length="51.02" shape="488.91,-69.20 417.17,-66.14">
        <lane id="21666_0" index="0" disallow="pedestrian tram rail_urban rail rail_electric rail_fast ship" speed="36.11" length="51.02" width="3.50" customShape="1" shape="488.91,-69.20 463.42,-68.30 437.92,-67.41"/>
    </edge>
    <edge id="21668" from="29" to="33" priority="3" type="highway.residential" spreadType="center" length="69.99" shape="327.99,-53.01 416.85,-69.61">
        <lane id="21668_0" index="0" disallow="pedestrian tram rail_urban rail rail_electric rail_fast ship" speed="36.11" length="69.99" width="3.50" customShape="1" shape="327.99,-53.01 336.54,-55.60 346.78,-58.36 362.49,-62.10 375.33,-64.79 387.76,-67.01 396.23,-68.25"/>
    </edge>
    <edge id="21669" from="33" to="18" priority="3" type="highway.residential" spreadType="center" length="70.01" shape="417.49,-66.17 328.42,-49.48">
        <lane id="21669_0" index="0" disallow="pedestrian tram rail_urban rail rail_electric rail_fast ship" speed="36.11" length="70.01" width="3.50" customShape="1" shape="396.66,-64.78 388.28,-63.55 375.95,-61.34 363.20,-58.67 347.58,-54.95 337.43,-52.21 328.42,-49.48"/>
    </edge>
    <edge id="21689" from="30" to="34" priority="3" type="highway.residential" spreadType="center" length="70.01" shape="340.72,83.78 422.49,65.95">
        <lane id="21689_0" index="0" disallow="pedestrian tram rail_urban rail rail_electric rail_fast ship" speed="36.11" length="70.01" width="3.50" customShape="1" shape="340.72,83.78 343.36,82.48 347.24,81.01 351.74,79.73 357.33,78.56 370.68,76.46 377.32,75.22 383.36,73.68 393.96,71.08 408.74,67.95"/>
    </edge>
    <edge id="21690" from="34" to="26" priority="3" type="highway.residential" spreadType="center" length="70.00" shape="423.24,69.37 341.49,87.38">
        <lane id="21690_0" index="0" disallow="pedestrian tram rail_urban rail rail_electric rail_fast ship" speed="36.11" length="70.00" width="3.50" customShape="1" shape="409.43,71.38 395.02,74.43 384.69,76.95 378.74,78.48 372.16,79.76 359.11,81.80 353.72,82.87 349.42,84.01 345.72,85.30 342.64,86.71 341.49,87.38"/>
    </edge>

    <junction id="14" type="dead_end" x="338.26" y="23.16" incLanes="" intLanes="" shape="338.68,24.86 337.85,21.46" rightOfWay="edgePriority"/>
    <junction id="18" type="dead_end" x="328.42" y="-49.48" incLanes="21669_0" intLanes="" shape="328.93,-47.81 327.92,-51.16" rightOfWay="edgePriority"/>
    <junction id="19" type="dead_end" x="401.05" y="-157.39" incLanes="21618_0" intLanes="" shape="399.30,-157.26 402.79,-157.53" rightOfWay="edgePriority"/>
    <junction id="20" type="dead_end" x="488.79" y="-72.70" incLanes="21665_0" intLanes="" shape="488.73,-74.45 488.85,-70.95" rightOfWay="edgePriority"/>
    <junction id="26" type="dead_end" x="341.49" y="87.38" incLanes="21690_0" intLanes="" shape="342.37,88.89 340.60,85.87" rightOfWay="edgePriority"/>
    <junction id="27" type="dead_end" x="434.46" y="155.48" incLanes="21628_0" intLanes="" shape="436.21,155.50 432.71,155.46" rightOfWay="edgePriority"/>
    <junction id="28" type="dead_end" x="488.91" y="-69.20" incLanes="" intLanes="" shape="488.85,-70.95 488.97,-67.45" rightOfWay="edgePriority"/>
    <junction id="29" type="dead_end" x="327.99" y="-53.01" incLanes="" intLanes="" shape="328.49,-51.33 327.48,-54.68" rightOfWay="edgePriority"/>
    <junction id="30" type="dead_end" x="340.72" y="83.78" incLanes="" intLanes="" shape="341.49,85.35 339.95,82.21" rightOfWay="edgePriority"/>
    <junction id="31" type="dead_end" x="404.51" y="-157.99" incLanes="" intLanes="" shape="402.77,-157.85 406.26,-158.13" rightOfWay="edgePriority"/>
    <junction id="32" type="dead_end" x="430.95" y="155.83" incLanes="" intLanes="" shape="432.70,155.85 429.20,155.81" rightOfWay="edgePriority"/>
    <junction id="33" type="priority" x="417.14" y="-67.89" incLanes="21621_0 21666_0 21619_0 21668_0" intLanes=":33_0_0 :33_1_0 :33_2_0 :33_3_0 :33_4_0 :33_5_0 :33_6_0 :33_7_0 :33_8_0 :33_9_0 :33_10_0 :33_11_0" shape="418.04,-46.71 424.87,-48.21 424.21,-53.38 424.68,-57.64 426.30,-61.00 429.05,-63.46 432.95,-65.01 437.98,-65.66 437.74,-72.65 432.00,-72.93 427.12,-74.19 423.11,-76.43 419.95,-79.65 417.66,-83.86 416.23,-89.06 409.34,-87.84 409.72,-83.04 409.06,-78.97 407.34,-75.63 404.57,-73.01 400.76,-71.13 395.89,-69.97 396.91,-63.05 402.22,-63.29 406.81,-62.34 410.68,-60.21 413.85,-56.90 416.30,-52.39">
        <request index="0" response="000000000000" foes="000100010000" cont="0"/>
        <request index="1" response="000000000000" foes="111100110000" cont="0"/>
        <request index="2" response="000011000000" foes="110011110000" cont="0"/>
        <request index="3" response="000010000000" foes="100010000000" cont="0"/>
        <request index="4" response="000110000111" foes="100110000111" cont="0"/>
        <request index="5" response="011110000110" foes="011110000110" cont="0"/>
        <request index="6" response="000000000000" foes="010000000100" cont="0"/>
        <request index="7" response="000000000000" foes="110000111100" cont="0"/>
        <request index="8" response="000000000011" foes="110000110011" cont="0"/>
        <request index="9" response="000000000010" foes="000000100010" cont="0"/>
        <request index="10" response="000111000110" foes="000111100110" cont="0"/>
        <request index="11" response="000110011110" foes="000110011110" cont="0"/>
    </junction>
    <junction id="34" type="priority" x="422.83" y="67.67" incLanes="21627_0 21625_0 21689_0" intLanes=":34_0_0 :34_1_0 :34_2_0 :34_3_0 :34_4_0 :34_5_0" shape="427.30,86.04 434.27,85.42 432.12,47.51 425.12,47.64 424.73,52.32 423.37,56.37 421.06,59.79 417.78,62.58 413.54,64.73 408.34,66.25 409.79,73.09 414.74,72.51 418.87,73.02 422.20,74.63 424.71,77.34 426.41,81.14">
        <request index="0" response="000000" foes="001000" cont="0"/>
        <request index="1" response="000000" foes="111000" cont="0"/>
        <request index="2" response="000000" foes="100000" cont="0"/>
        <request index="3" response="000011" foes="100011" cont="0"/>
        <request index="4" response="000010" foes="000010" cont="0"/>
        <request index="5" response="001110" foes="001110" cont="0"/>
    </junction>
    <junction id="35" type="priority" x="420.39" y="5.93" incLanes="21624_0 21622_0 21574_0" intLanes=":35_0_0 :35_1_0 :35_2_0 :35_3_0 :35_4_0 :35_5_0" shape="424.71,24.83 431.71,24.71 429.78,-15.56 422.81,-14.92 422.72,-10.14 421.54,-5.95 419.26,-2.36 415.88,0.63 411.40,3.02 405.83,4.82 407.49,11.62 412.67,10.84 416.92,11.25 420.25,12.85 422.66,15.65 424.15,19.65">
        <request index="0" response="000000" foes="001000" cont="0"/>
        <request index="1" response="000000" foes="111000" cont="0"/>
        <request index="2" response="000000" foes="100000" cont="0"/>
        <request index="3" response="000011" foes="100011" cont="0"/>
        <request index="4" response="000010" foes="000010" cont="0"/>
        <request index="5" response="001110" foes="001110" cont="0"/>
    </junction>
    <junction id="7" type="dead_end" x="339.08" y="26.57" incLanes="21575_0" intLanes="" shape="339.50,28.27 338.67,24.87" rightOfWay="edgePriority"/>

    <connection from="21574" to="21621" fromLane="0" toLane="0" contPos="-4.00" shape="406.25,6.52 407.31,6.25 410.54,5.24 413.63,3.96 415.56,2.95 417.39,1.77 419.06,0.43 420.56,-1.07 421.84,-2.75 422.89,-4.57 423.68,-6.52 424.23,-8.57 424.55,-10.70 424.65,-12.87 424.55,-15.08" via=":35_4_0" dir="r" state="m"/>
    <connection from="21574" to="21625" fromLane="0" toLane="0" contPos="-4.00" shape="406.25,6.52 408.85,5.97 411.52,5.60 414.26,5.48 417.00,5.69 418.43,5.96 419.81,6.35 421.16,6.88 422.47,7.56 423.69,8.39 424.80,9.36 425.80,10.44 426.66,11.61 427.39,12.85 428.01,14.13 428.52,15.47 429.25,18.10 429.69,20.79 429.96,24.74" via=":35_5_0" dir="l" state="m"/>
    <connection from="21619" to="21665" fromLane="0" toLane="0" contPos="-4.00" shape="414.51,-88.74 414.71,-87.66 415.57,-84.40 416.34,-82.36 417.28,-80.40 418.43,-78.58 419.76,-76.92 421.30,-75.44 423.01,-74.18 424.87,-73.14 426.87,-72.31 428.95,-71.69 431.10,-71.26 434.44,-70.92 437.80,-70.90" via=":33_6_0" dir="r" state="M"/>
    <connection from="21619" to="21622" fromLane="0" toLane="0" contPos="-4.00" shape="414.51,-88.74 417.17,-74.71 420.61,-58.76 423.16,-47.83" via=":33_7_0" dir="s" state="M"/>
    <connection from="21619" to="21669" fromLane="0" toLane="0" contPos="-4.00" shape="414.51,-88.74 414.99,-84.76 415.05,-82.09 414.82,-79.44 414.25,-76.83 413.82,-75.57 413.28,-74.35 412.64,-73.18 411.89,-72.07 411.05,-71.04 410.11,-70.10 409.09,-69.24 408.00,-68.46 405.66,-67.17 403.18,-66.19 400.62,-65.47 396.66,-64.78" via=":33_8_0" dir="l" state="m"/>
    <connection from="21621" to="21669" fromLane="0" toLane="0" contPos="-4.00" shape="419.76,-47.03 419.49,-48.09 418.48,-51.33 417.18,-54.42 416.14,-56.33 414.94,-58.13 413.55,-59.78 412.00,-61.23 410.28,-62.46 408.41,-63.44 406.42,-64.18 404.33,-64.68 402.18,-64.95 400.01,-65.01 396.66,-64.78" via=":33_0_0" dir="r" state="M"/>
    <connection from="21621" to="21618" fromLane="0" toLane="0" contPos="-4.00" shape="419.76,-47.03 417.19,-58.00 413.74,-74.02 411.06,-88.15" via=":33_1_0" dir="s" state="M"/>
    <connection from="21621" to="21665" fromLane="0" toLane="0" contPos="-4.00" shape="419.76,-47.03 419.22,-49.62 418.87,-52.28 418.76,-54.99 418.97,-57.72 419.24,-59.13 419.63,-60.51 420.15,-61.85 420.82,-63.15 421.63,-64.37 422.57,-65.49 423.63,-66.49 424.78,-67.37 425.99,-68.12 427.25,-68.76 428.57,-69.30 431.17,-70.07 433.84,-70.57 437.80,-70.90" via=":33_2_0" dir="l" state="m"/>
    <connection from="21622" to="21625" fromLane="0" toLane="0" contPos="-4.00" shape="428.04,-15.34 428.65,-7.12 429.48,8.31 429.96,24.74" via=":35_2_0" dir="s" state="M"/>
    <connection from="21622" to="21575" fromLane="0" toLane="0" contPos="-4.00" shape="428.04,-15.34 428.15,-12.83 428.04,-10.33 427.68,-7.84 427.05,-5.41 426.12,-3.08 424.89,-0.90 423.38,1.11 421.63,2.90 419.68,4.48 417.57,5.86 415.36,7.03 411.88,8.48 408.29,9.61 407.08,9.92" via=":35_3_0" dir="l" state="m"/>
    <connection from="21624" to="21575" fromLane="0" toLane="0" contPos="-4.00" shape="426.46,24.84 426.23,21.40 425.86,19.14 425.25,16.93 424.83,15.86 424.34,14.83 423.75,13.84 423.07,12.92 422.30,12.07 421.43,11.32 420.48,10.68 419.47,10.14 418.40,9.73 417.30,9.41 416.17,9.20 413.88,9.03 411.59,9.13 409.32,9.44 407.08,9.92" via=":35_0_0" dir="r" state="M"/>