<routes>
	<vehicle depart="0.1" departLane="4" departPos="162.11269975966704" departSpeed="16.764" id="69" type="passenger">
		<route edges="14"/>
	</vehicle>
	<vehicle depart="0.1" departLane="4" departPos="139.73902914587262" departSpeed="15.2309" id="77" type="passenger">
		<route edges="14"/>
	</vehicle>
	<vehicle depart="0.1" departLane="3" departPos="202.14874305505367" departSpeed="16.892" id="78" type="passenger">
		<route edges="14"/>
	</vehicle>
	<vehicle depart="0.1" departLane="0" departPos="190.8639323205922" departSpeed="16.6086" id="82" type="passenger">
		<route edges="14 14"/>
	</vehicle>
	<vehicle depart="0.1" departLane="3" departPos="171.61013172495768" departSpeed="15.877" id="84" type="passenger">
		<route edges="14"/>
	</vehicle>
	<vehicle depart="0.1" departLane="3" departPos="146.4658266299282" departSpeed="15.5113" id="94" type="passenger">
		<route edges="14"/>
	</vehicle>
	<vehicle depart="0.1" departLane="4" departPos="97.09364462337152" departSpeed="16.764" id="95" type="passenger">
		<route edges="14"/>
	</vehicle>
	<vehicle depart="0.1" departLane="3" departPos="189.5231391682834" departSpeed="15.2491" id="97" type="passenger">
		<route edges="14"/>
	</vehicle>
	<vehicle depart="0.1" departLane="1" departPos="161.49459993767667" departSpeed="18.1722" id="99" type="passenger">
		<route edges="14"/>
	</vehicle>
	<vehicle depart="0.1" departLane="0" departPos="155.86289546459864" departSpeed="16.7701" id="100" type="passenger">
		<route edges="14"/>
	</vehicle>
	<vehicle depart="0.1" departLane="4" departPos="49.82710012079594" departSpeed="15.2674" id="104" type="passenger">
		<route edges="14"/>
	</vehicle>
	<vehicle depart="0.1" departLane="3" departPos="119.64415266033383" departSpeed="16.5933" id="105" type="passenger">
		<route edges="14"/>
	</vehicle>
	<vehicle depart="0.1" departLane="0" departPos="126.96217382836055" departSpeed="14.7584" id="109" type="passenger">
		<route edges="14"/>
	</vehicle>
	<vehicle depart="0.1" departLane="1" departPos="154.77175196597085" departSpeed="19.0165" id="114" type="passenger">
		<route edges="14 14"/>
	</vehicle>
	<vehicle depart="0.1" departLane="3" departPos="84.63580193681014" departSpeed="17.1663" id="115" type="passenger">
		<route edges="14 14"/>
	</vehicle>
	<vehicle depart="0.1" departLane="3" departPos="0" departSpeed="16.3464" id="116" type="passenger">
		<route edges="14 14 14 14"/>
	</vehicle>
	<vehicle depart="0.1" departLane="2" departPos="111.93381933788336" departSpeed="17.782" id="117" type="passenger">
		<route edges="14"/>
	</vehicle>
	<vehicle depart="0.1" departLane="2" departPos="130.707593498709" departSpeed="16.7549" id="118" type="passenger">
		<route edges="14 14"/>
	</vehicle>
	<vehicle depart="0.1" departLane="1" departPos="96.09677196334836" departSpeed="16.4988" id="119" type="passenger">
		<route edges="14"/>
	</vehicle>
	<vehicle depart="0.1" departLane="3" departPos="64.35108303582942" departSpeed="15.304" id="120" type="passenger">
		<route edges="14"/>
	</vehicle>
	<vehicle depart="0.1" departLane="4" departPos="11.984574699295479" departSpeed="13.5301" id="121" type="passenger">
		<route edges="14"/>
	</vehicle>
	<vehicle depart="0.1" departLane="0" departPos="96.47907500637626" departSpeed="15.24" id="122" type="passenger">
		<route edges="14"/>
	</vehicle>
	<vehicle depart="0.1" departLane="2" departPos="90.68481245179474" departSpeed="16.9347" id="124" type="passenger">
		<route edges="14"/>
	</vehicle>
	<vehicle depart="0.1" departLane="3" departPos="44.293280323911716" departSpeed="16.258" id="127" type="passenger">
		<route edges="14"/>
	</vehicle>
	<vehicle depart="0.1" departLane="0" departPos="75.03300559157314" departSpeed="16.8829" id="128" type="passenger">
		<route edges="14 14"/>
	</vehicle>
	<vehicle depart="0.1" departLane="0" departPos="53.96025682783244" departSpeed="16.761" id="131" type="passenger">
		<route edges="14"/>
	</vehicle>
	<vehicle depart="0.1" departLane="2" departPos="40.39003820152843" departSpeed="15.5082" id="132" type="passenger">
		<route edges="14 14"/>
	</vehicle>
	<vehicle depart="0.1" departLane="1" departPos="47.565716711883766" departSpeed="17.148" id="135" type="passenger">
		<route edges="14"/>
	</vehicle>
	<vehicle depart="0.1" departLane="3" departPos="20.537561134126083" departSpeed="17.3888" id="136" type="passenger">
		<route edges="14"/>
	</vehicle>
	<vehicle depart="0.1" departLane="0" departPos="16.296480977442002" departSpeed="17.2547" id="139" type="passenger">
		<route edges="14"/>
	</vehicle>
	<vehicle depart="0.1" departLane="1" departPos="16.855867566134954" departSpeed="16.8768" id="140" type="passenger">
		<route edges="14 14"/>
	</vehicle>
	<vehicle depart="0.1" departLane="1" departPos="0" departSpeed="16.7396" id="144" type="passenger">
		<route edges="14"/>
	</vehicle>
</routes>
