<routes>
	<vehicle depart="0.1" departLane="0" departPos="1.0" departSpeed="0.003800694" id="339" type="bicycle">
		<route edges="67777 68265"/>
	</vehicle>
	<vehicle depart="0.1" departLane="0" departPos="16.75159243466665" departSpeed="0.35774985" id="336" type="bus">
		<route edges="67777 68265"/>
	</vehicle>
	<vehicle depart="0.1" departLane="0" departPos="69.92643437749442" departSpeed="0.0" id="312" type="passenger">
		<route edges="66725 68265"/>
	</vehicle>
	<vehicle depart="0.1" departLane="0" departPos="62.42536386382667" departSpeed="0.0" id="315" type="passenger">
		<route edges="66725 68265"/>
	</vehicle>
	<vehicle depart="0.1" departLane="0" departPos="32.799893903268625" departSpeed="0.68691966" id="324" type="passenger">
		<route edges="67777 68265"/>
	</vehicle>
	<vehicle depart="0.1" departLane="0" departPos="25.299653147703047" departSpeed="0.32491947" id="330" type="passenger">
		<route edges="67777 68265"/>
	</vehicle>
	<vehicle depart="0.1" departLane="0" departPos="20.566052300145742" departSpeed="13.698289" id="350" type="passenger">
		<route edges=":17_2 66724"/>
	</vehicle>
	<vehicle depart="0.1" departLane="0" departPos="2.5" departSpeed="8.9724085" id="352" type="passenger">
		<route edges=":17_2 66724"/>
	</vehicle>
	<vehicle depart="0.1" departLane="0" departPos="12.936658305123801" departSpeed="10.511035" id="353" type="passenger">
		<route edges=":17_0 68265"/>
	</vehicle>
	<vehicle depart="0.1" departLane="0" departPos="1.25" departSpeed="0.39488484" id="340" type="motorcycle">
		<route edges="67777 68265"/>
	</vehicle>
</routes>
