<routes>
	<vehicle depart="0.1" departLane="0" departPos="53.85386966906844" departSpeed="1.5314471" id="39" type="bicycle">
		<route edges="126362 126499"/>
	</vehicle>
	<vehicle depart="0.1" departLane="0" departPos="10.758178316581407" departSpeed="6.0355694" id="33" type="passenger">
		<route edges=":70_2 126499"/>
	</vehicle>
	<vehicle depart="0.1" departLane="0" departPos="50.87631822375771" departSpeed="3.167973" id="331" type="passenger">
		<route edges="126362 126499"/>
	</vehicle>
	<vehicle depart="0.1" departLane="0" departPos="41.8053691561433" departSpeed="1.7622548" id="336" type="passenger">
		<route edges="126362 126499"/>
	</vehicle>
	<vehicle depart="0.1" departLane="0" departPos="2.5" departSpeed="4.3993973" id="337" type="passenger">
		<route edges=":70_5 126499"/>
	</vehicle>
	<vehicle depart="0.1" departLane="0" departPos="32.93205993003157" departSpeed="1.2845068" id="341" type="passenger">
		<route edges="126362 126499"/>
	</vehicle>
	<vehicle depart="0.1" departLane="0" departPos="31.399415434219268" departSpeed="1.9076902" id="342" type="passenger">
		<route edges="126496 126363"/>
	</vehicle>
	<vehicle depart="0.1" departLane="0" departPos="22.70959954947372" departSpeed="1.2214382" id="345" type="passenger">
		<route edges="126496 126363"/>
	</vehicle>
	<vehicle depart="0.1" departLane="0" departPos="21.919209417467375" departSpeed="1.9579709" id="347" type="passenger">
		<route edges="126362 126499"/>
	</vehicle>
	<vehicle depart="0.1" departLane="0" departPos="1.25" departSpeed="9.3319422" id="333" type="motorcycle">
		<route edges="126499 126087"/>
	</vehicle>
</routes>
