<routes>
	<vehicle depart="0.1" departLane="1" departPos="130.54347061185035" departSpeed="5.0456838" id="1" type="passenger">
		<route edges="26 28 24"/>
	</vehicle>
	<vehicle depart="0.1" departLane="0" departPos="0" departSpeed="9.9345219" id="2" type="passenger">
		<route edges="26 27 24"/>
	</vehicle>
	<vehicle depart="0.1" departLane="0" departPos="100.46869659682949" departSpeed="5.079245" id="3" type="passenger">
		<route edges="26 26 28 24"/>
	</vehicle>
</routes>
