<routes>
	<vehicle depart="0.1" departLane="0" departPos="20.751109568978404" departSpeed="0.0" id="34" type="passenger">
		<route edges="62460 62063"/>
	</vehicle>
	<vehicle depart="0.1" departLane="0" departPos="13.249263116033159" departSpeed="9.2348806e-05" id="310" type="passenger">
		<route edges="62460 62063"/>
	</vehicle>
	<vehicle depart="0.1" departLane="0" departPos="5.7462242844041995" departSpeed="0.0012983136" id="315" type="passenger">
		<route edges="62460 62063"/>
	</vehicle>
	<vehicle depart="0.1" departLane="0" departPos="23.660939908407588" departSpeed="6.7238948" id="316" type="passenger">
		<route edges=":38_5 62175"/>
	</vehicle>
	<vehicle depart="0.1" departLane="0" departPos="28.259099680450515" departSpeed="0.10737446" id="318" type="passenger">
		<route edges=":38_3 62460"/>
	</vehicle>
	<vehicle depart="0.1" departLane="0" departPos="13.090791100181653" departSpeed="5.6290509" id="323" type="passenger">
		<route edges="62459 62171"/>
	</vehicle>
	<vehicle depart="0.1" departLane="0" departPos="54.576972315188335" departSpeed="0.0" id="337" type="passenger">
		<route edges="62174 62171"/>
	</vehicle>
	<vehicle depart="0.1" departLane="0" departPos="47.11104080497995" departSpeed="0.00010147247" id="340" type="passenger">
		<route edges="62174 62171"/>
	</vehicle>
	<vehicle depart="0.1" departLane="0" departPos="64.91624637123311" departSpeed="0.880889" id="319" type="truck">
		<route edges="62172 62175"/>
	</vehicle>
	<vehicle depart="0.1" departLane="0" departPos="36.38476220468882" departSpeed="8.5098801" id="326" type="truck">
		<route edges=":38_5 62175"/>
	</vehicle>
</routes>
