<routes>
	<vehicle depart="0.1" departLane="0" departPos="13.33" departSpeed="3.0" id="1" type="bicycle">
		<route edges="8 9"/>
	</vehicle>
	<vehicle depart="0.1" departLane="0" departPos="17.0" departSpeed="0.0" id="2" type="passenger">
		<route edges="13"/>
	</vehicle>
	<vehicle depart="0.1" departLane="0" departPos="17.0" departSpeed="0.0" id="3" type="passenger">
		<route edges="11"/>
	</vehicle>
	<vehicle depart="0.1" departLane="0" departPos="17.0" departSpeed="0.0" id="4" type="passenger">
		<route edges="12"/>
	</vehicle>
	<vehicle depart="0.1" departLane="0" departPos="16.16" departSpeed="0" id="5" type="passenger_static">
		<route edges="8"/>
	</vehicle>
	<vehicle depart="0.1" departLane="0" departPos="10.16" departSpeed="0" id="6" type="passenger_static">
		<route edges="8"/>
	</vehicle>
	<vehicle depart="0.1" departLane="0" departPos="6.16" departSpeed="0" id="7" type="passenger_static">
		<route edges="8"/>
	</vehicle>
</routes>
