<!-- generated on 2020-12-18 15:58:41.110372 by ipykernel_launcher.py v1_2_0+5214-53edc58fcd
-->
<edges>
	<edge from="1" function="normal" id="3431" length="7.746632106922337" numLanes="5" priority="1" speed="36.11111111111111" spreadType="center" to="2">
		<lane allow="moped bicycle pedestrian custom1 trailer evehicle rail_urban ship private truck vip custom2 authority delivery rail_electric taxi tram army hov coach motorcycle passenger bus rail emergency" index="0" length="7.746632106922337" shape="8.981950000000001,71.4477 5.43985,64.4372" speed="36.11111111111111" width="2.8417555225599527"/>
		<lane allow="moped bicycle pedestrian custom1 trailer evehicle rail_urban ship private truck vip custom2 authority delivery rail_electric taxi tram army hov coach motorcycle passenger bus rail emergency" index="1" length="7.746632106922337" shape="11.609200000000001,70.09899999999999 8.12635,63.0911" speed="36.11111111111111" width="3.0646593807469076"/>
		<lane allow="moped bicycle pedestrian custom1 trailer evehicle rail_urban ship private truck vip custom2 authority delivery rail_electric taxi tram army hov coach motorcycle passenger bus rail emergency" index="2" length="7.746632106922337" shape="14.320250000000001,68.70724999999999 10.8726,61.732600000000005" speed="36.11111111111111" width="3.0301778330652467"/>
		<lane allow="moped bicycle pedestrian custom1 trailer evehicle rail_urban ship private truck vip custom2 authority delivery rail_electric taxi tram army hov coach motorcycle passenger bus rail emergency" index="3" length="7.746632106922337" shape="17.0385,67.3118 13.607099999999999,60.366600000000005" speed="36.11111111111111" width="3.052837840436337"/>
		<lane allow="moped bicycle pedestrian custom1 trailer evehicle rail_urban ship private truck vip custom2 authority delivery rail_electric taxi tram army hov coach motorcycle passenger bus rail emergency" index="4" length="7.746632106922337" shape="19.7638,65.91275 16.33285,58.9238" speed="36.11111111111111" width="3.0460097258544647"/>
	</edge>
	<edge from="2" function="normal" id="3438" length="8.438893355322135" numLanes="6" priority="1" speed="36.11111111111111" spreadType="center" to="3">
		<lane allow="moped bicycle pedestrian custom1 trailer evehicle rail_urban ship private truck vip custom2 authority delivery rail_electric taxi tram army hov coach motorcycle passenger bus rail emergency" index="0" length="8.438893355322135" shape="5.43985,64.4372 -1.2349999999999999,58.16045" speed="36.11111111111111" width="2.94351281464851"/>
		<lane allow="moped bicycle pedestrian custom1 trailer evehicle rail_urban ship private truck vip custom2 authority delivery rail_electric taxi tram army hov coach motorcycle passenger bus rail emergency" index="1" length="8.438893355322135" shape="5.43985,64.4372 1.6063,56.82755" speed="36.11111111111111" width="2.94351281464851"/>
		<lane allow="moped bicycle pedestrian custom1 trailer evehicle rail_urban ship private truck vip custom2 authority delivery rail_electric taxi tram army hov coach motorcycle passenger bus rail emergency" index="2" length="8.438893355322135" shape="8.12635,63.0911 4.35485,55.495999999999995" speed="36.11111111111111" width="3.054615309658486"/>
		<lane allow="moped bicycle pedestrian custom1 trailer evehicle rail_urban ship private truck vip custom2 authority delivery rail_electric taxi tram army hov coach motorcycle passenger bus rail emergency" index="3" length="8.438893355322135" shape="10.8726,61.732600000000005 7.0859000000000005,54.15315" speed="36.11111111111111" width="3.032458014548592"/>
		<lane allow="moped bicycle pedestrian custom1 trailer evehicle rail_urban ship private truck vip custom2 authority delivery rail_electric taxi tram army hov coach motorcycle passenger bus rail emergency" index="4" length="8.438893355322135" shape="13.607099999999999,60.366600000000005 9.8048,52.771950000000004" speed="36.11111111111111" width="3.052837840436337"/>
		<lane allow="moped bicycle pedestrian custom1 trailer evehicle rail_urban ship private truck vip custom2 authority delivery rail_electric taxi tram army hov coach motorcycle passenger bus rail emergency" index="5" length="8.438893355322135" shape="16.33285,58.9238 12.5927,51.358999999999995" speed="36.11111111111111" width="3.115279160845785"/>
	</edge>
	<edge from="3" function="normal" id="3450" length="24.494871241480364" numLanes="6" priority="1" speed="36.11111111111111" spreadType="center" to="4">
		<lane allow="moped bicycle pedestrian custom1 trailer evehicle rail_urban ship private truck vip custom2 authority delivery rail_electric taxi tram army hov coach motorcycle passenger bus rail emergency" index="0" length="24.494871241480364" shape="-1.2349999999999999,58.16045 -4.3997,51.9264 -8.187999999999999,44.23925 -12.2737,36.294650000000004" speed="36.11111111111111" width="3.2241062653082633"/>
		<lane allow="moped bicycle pedestrian custom1 trailer evehicle rail_urban ship private truck vip custom2 authority delivery rail_electric taxi tram army hov coach motorcycle passenger bus rail emergency" index="1" length="24.494871241480364" shape="1.6063,56.82755 -1.4012,50.775949999999995 -5.22415,42.8277 -9.328,34.69095" speed="36.11111111111111" width="2.8665619215359732"/>
		<lane allow="moped bicycle pedestrian custom1 trailer evehicle rail_urban ship private truck vip custom2 authority delivery rail_electric taxi tram army hov coach motorcycle passenger bus rail emergency" index="2" length="24.494871241480364" shape="4.35485,55.495999999999995 1.33185,49.44455 -2.52195,41.49675 -6.6855,33.3724" speed="36.11111111111111" width="3.004221073756057"/>
		<lane allow="moped bicycle pedestrian custom1 trailer evehicle rail_urban ship private truck vip custom2 authority delivery rail_electric taxi tram army hov coach motorcycle passenger bus rail emergency" index="3" length="24.494871241480364" shape="7.0859000000000005,54.15315 3.9995000000000003,47.9949 0.11480000000000001,40.0475 -3.90085,31.997999999999998" speed="36.11111111111111" width="3.0189875720181423"/>
		<lane allow="moped bicycle pedestrian custom1 trailer evehicle rail_urban ship private truck vip custom2 authority delivery rail_electric taxi tram army hov coach motorcycle passenger bus rail emergency" index="4" length="24.494871241480364" shape="9.8048,52.771950000000004 6.686350000000001,46.53725 2.8016500000000004,38.58985 -1.13775,30.6047" speed="36.11111111111111" width="3.018395509206836"/>
		<lane allow="moped bicycle pedestrian custom1 trailer evehicle rail_urban ship private truck vip custom2 authority delivery rail_electric taxi tram army hov coach motorcycle passenger bus rail emergency" index="5" length="24.494871241480364" shape="12.5927,51.358999999999995 9.38025,45.03335 5.49555,37.08595 1.55805,29.23155" speed="36.11111111111111" width="3.0323687935341894"/>
	</edge>
	<edge from="4" function="normal" id="3664" length="45.62159337177896" numLanes="2" priority="1" speed="36.11111111111111" spreadType="center" to="5">
		<lane allow="moped bicycle pedestrian custom1 trailer evehicle rail_urban ship private vip custom2 authority delivery rail_electric taxi tram army hov coach motorcycle passenger rail emergency" index="0" length="45.62159337177896" shape="-1.13775,30.6047 -4.8961,23.223300000000002 -7.031499999999999,18.815350000000002 -8.0964,16.283450000000002 -8.56985,14.235600000000002 -8.69765,11.8702 -8.2562,9.0835 -7.5211,6.5173000000000005 -6.454649999999999,4.57855 -5.0418,2.43215 -1.92155,-0.5428000000000001 4.12305,-4.0255 13.1358,-8.7402" speed="36.11111111111111" width="2.934935747167218"/>
		<lane allow="moped bicycle pedestrian custom1 trailer evehicle rail_urban ship private vip custom2 authority delivery rail_electric taxi tram army hov coach motorcycle passenger rail emergency" index="1" length="45.62159337177896" shape="1.55805,29.23155 -1.79335,22.455350000000003 -3.40125,18.409950000000002 -4.06505,16.018700000000003 -4.3414,14.23735 -4.509399999999999,12.204550000000001 -4.28015,10.0968 -3.6319,8.33095 -2.66555,6.7499 -1.33955,5.13065 1.1333,2.5622499999999997 6.3979,-1.1961 14.68065,-5.6486" speed="36.11111111111111" width="3.0323687935341894"/>
	</edge>
	<edge from="5" function="normal" id="3495" length="15.184501575044735" numLanes="3" priority="1" speed="36.11111111111111" spreadType="center" to="6">
		<lane allow="moped bicycle pedestrian custom1 trailer evehicle rail_urban ship private truck vip custom2 authority delivery rail_electric taxi tram army hov coach motorcycle passenger bus rail emergency" index="0" length="15.184501575044735" shape="11.51275,-12.0683 20.24005,-16.36335 25.14785,-18.77865" speed="36.11111111111111" width="3.87658596447957"/>
		<lane allow="moped bicycle pedestrian custom1 trailer evehicle rail_urban ship private truck vip custom2 authority delivery rail_electric taxi tram army hov coach motorcycle passenger bus rail emergency" index="1" length="15.184501575044735" shape="13.1358,-8.7402 21.86295,-13.033750000000001 26.781550000000003,-15.45355" speed="36.11111111111111" width="3.5117895381130118"/>
		<lane allow="moped bicycle pedestrian custom1 trailer evehicle rail_urban ship private truck vip custom2 authority delivery rail_electric taxi tram army hov coach motorcycle passenger bus rail emergency" index="2" length="15.184501575044735" shape="14.68065,-5.6486 23.359450000000002,-9.917200000000001 28.30625,-12.350249999999999" speed="36.11111111111111" width="3.382313814535842"/>
	</edge>
	<edge from="4" function="normal" id="3610" length="13.553882434287969" numLanes="3" priority="1" speed="36.11111111111111" spreadType="center" to="7">
		<lane allow="moped bicycle pedestrian custom1 trailer evehicle rail_urban ship private truck vip custom2 authority delivery rail_electric taxi tram army hov coach motorcycle passenger bus rail emergency" index="0" length="13.553882434287969" shape="-9.328,34.69095 -15.3647,22.51505" speed="36.11111111111111" width="2.8665619215359732"/>
		<lane allow="moped bicycle pedestrian custom1 trailer evehicle rail_urban ship private truck vip custom2 authority delivery rail_electric taxi tram army hov coach motorcycle passenger bus rail emergency" index="1" length="13.553882434287969" shape="-6.6855,33.3724 -12.63575,21.181199999999997" speed="36.11111111111111" width="3.0173836033888684"/>
		<lane allow="moped bicycle pedestrian custom1 trailer evehicle rail_urban ship private truck vip custom2 authority delivery rail_electric taxi tram army hov coach motorcycle passenger bus rail emergency" index="2" length="13.553882434287969" shape="-3.90085,31.997999999999998 -9.87965,19.834049999999998" speed="36.11111111111111" width="3.1180545505170376"/>
	</edge>
	<edge from="7" function="normal" id="3646" length="16.50963275573512" numLanes="3" priority="1" speed="36.11111111111111" spreadType="center" to="8">
		<lane allow="moped bicycle pedestrian custom1 trailer evehicle rail_urban ship private truck vip custom2 authority delivery rail_electric taxi tram army hov coach motorcycle passenger bus rail emergency" index="0" length="16.50963275573512" shape="-15.3647,22.51505 -16.7987,19.62265 -18.43195,16.3281 -19.837049999999998,13.4942 -21.222450000000002,10.6998 -22.69805,7.7235" speed="36.11111111111111" width="3.0575892938718896"/>
		<lane allow="moped bicycle pedestrian custom1 trailer evehicle rail_urban ship private truck vip custom2 authority delivery rail_electric taxi tram army hov coach motorcycle passenger bus rail emergency" index="1" length="16.50963275573512" shape="-12.63575,21.181199999999997 -14.065000000000001,18.253 -15.67925,14.9455 -17.0703,12.0974 -18.450200000000002,9.27195 -19.918999999999997,6.2646999999999995" speed="36.11111111111111" width="2.9903827313573093"/>
		<lane allow="moped bicycle pedestrian custom1 trailer evehicle rail_urban ship private truck vip custom2 authority delivery rail_electric taxi tram army hov coach motorcycle passenger bus rail emergency" index="2" length="16.50963275573512" shape="-9.87965,19.834049999999998 -11.33025,16.8828 -12.955400000000001,13.5764 -14.3564,10.7273 -15.7548,7.883649999999999 -17.24195,4.8595500000000005" speed="36.11111111111111" width="3.0564489100915773"/>
	</edge>
	<edge from="8" function="normal" id="3626" length="12.190574110865327" numLanes="3" priority="1" speed="36.11111111111111" spreadType="center" to="9">
		<lane allow="moped bicycle pedestrian custom1 trailer evehicle rail_urban ship private truck vip custom2 authority delivery rail_electric taxi tram army hov coach motorcycle passenger bus rail emergency" index="0" length="12.190574110865327" shape="-22.69805,7.7235 -28.113349999999997,-3.19825" speed="36.11111111111111" width="3.2869467488841364"/>
		<lane allow="moped bicycle pedestrian custom1 trailer evehicle rail_urban ship private truck vip custom2 authority delivery rail_electric taxi tram army hov coach motorcycle passenger bus rail emergency" index="1" length="12.190574110865327" shape="-19.918999999999997,6.2646999999999995 -25.2697,-4.690899999999999" speed="36.11111111111111" width="2.9693589611227513"/>
		<lane allow="moped bicycle pedestrian custom1 trailer evehicle rail_urban ship private truck vip custom2 authority delivery rail_electric taxi tram army hov coach motorcycle passenger bus rail emergency" index="2" length="12.190574110865327" shape="-17.24195,4.8595500000000005 -22.621650000000002,-6.08085" speed="36.11111111111111" width="3.011988648716992"/>
	</edge>
	<edge from="9" function="normal" id="3542" length="42.04503365774767" numLanes="3" priority="1" speed="36.11111111111111" spreadType="center" to="10">
		<lane allow="moped bicycle pedestrian custom1 trailer evehicle rail_urban ship private truck vip custom2 authority delivery rail_electric taxi tram army hov coach motorcycle passenger rail emergency" index="0" length="42.04503365774767" shape="-28.113349999999997,-3.19825 -32.27465,-11.73695 -36.3279,-20.66695 -40.09995,-29.38545 -43.7247,-38.629400000000004 -45.04245,-41.84255" speed="36.11111111111111" width="2.8481341330772993"/>
		<lane allow="moped bicycle pedestrian custom1 trailer evehicle rail_urban ship private truck vip custom2 authority delivery rail_electric taxi tram army hov coach motorcycle passenger bus rail emergency" index="1" length="42.04503365774767" shape="-25.2697,-4.690899999999999 -29.5131,-13.2457 -33.59525,-22.0291 -37.3359,-30.7173 -40.989900000000006,-39.837599999999995 -42.33595,-43.17615" speed="36.11111111111111" width="2.9693589611227513"/>
		<lane allow="moped bicycle pedestrian custom1 trailer evehicle rail_urban ship private truck vip custom2 authority delivery rail_electric taxi tram army hov coach motorcycle passenger bus rail emergency" index="2" length="42.04503365774767" shape="-22.621650000000002,-6.08085 -26.844450000000002,-14.7608 -30.894799999999996,-23.4831 -34.66635,-32.1709 -38.1612,-40.97025 -39.573899999999995,-44.537099999999995" speed="36.11111111111111" width="2.962201547835665"/>
	</edge>
	<edge from="4" function="normal" id="3604" length="15.837809304392053" numLanes="1" priority="1" speed="36.11111111111111" spreadType="center" to="11">
		<lane allow="moped bicycle pedestrian custom1 trailer evehicle rail_urban ship private vip custom2 authority delivery rail_electric taxi tram army hov coach motorcycle passenger rail emergency" index="0" length="15.837809304392053" shape="-12.2737,36.294650000000004 -13.31595,35.02055 -14.5747,33.4687 -15.962700000000002,32.07245 -17.8431,30.83715 -19.5443,30.253349999999998 -21.3405,30.05565 -23.2622,30.275150000000004 -25.578200000000002,31.02735" speed="36.11111111111111" width="3.8433909311960415"/>
	</edge>
	<edge from="11" function="normal" id="3487" length="21.428343053831995" numLanes="3" priority="1" speed="36.11111111111111" spreadType="center" to="12">
		<lane allow="moped bicycle pedestrian custom1 trailer evehicle rail_urban ship private truck vip custom2 authority delivery rail_electric taxi tram army hov coach motorcycle passenger bus rail emergency" index="0" length="21.428343053831995" shape="-25.578200000000002,31.02735 -34.7917,35.466750000000005 -43.628600000000006,40.28545 -44.62495,40.830650000000006" speed="36.11111111111111" width="4.576431161942677"/>
		<lane allow="moped bicycle pedestrian custom1 trailer evehicle rail_urban ship private truck vip custom2 authority delivery rail_electric taxi tram army hov coach motorcycle passenger bus rail emergency" index="1" length="21.428343053831995" shape="-27.2955,26.5734 -36.685950000000005,31.61545 -45.33240000000001,36.78545 -46.35935,37.4019" speed="36.11111111111111" width="3.1084813092569807"/>
		<lane allow="moped bicycle pedestrian custom1 trailer evehicle rail_urban ship private truck vip custom2 authority delivery rail_electric taxi tram army hov coach motorcycle passenger bus rail emergency" index="2" length="21.428343053831995" shape="-28.4312,23.3423 -38.212900000000005,28.58995 -46.859350000000006,33.75995 -47.888949999999994,34.37805" speed="36.11111111111111" width="3.664585112942525"/>
	</edge>
	<edge from="13" function="normal" id="3479" length="22.651817425696017" numLanes="3" priority="1" speed="36.11111111111111" spreadType="center" to="14">
		<lane allow="moped bicycle pedestrian custom1 trailer evehicle rail_urban ship private truck vip custom2 authority delivery rail_electric taxi tram army hov coach motorcycle passenger bus rail emergency" index="0" length="22.651817425696017" shape="-52.752250000000004,24.76375 -51.609700000000004,24.185850000000002 -42.029700000000005,19.433500000000002 -32.41925,14.64995" speed="36.11111111111111" width="3.2311980966817857"/>
		<lane allow="moped bicycle pedestrian custom1 trailer evehicle rail_urban ship private truck vip custom2 authority delivery rail_electric taxi tram army hov coach motorcycle passenger rail emergency" index="1" length="22.651817425696017" shape="-51.34075,27.55415 -50.17895,26.966450000000002 -40.59895,22.214100000000002 -30.98845,17.43055" speed="36.11111111111111" width="3.0229731226062873"/>
		<lane allow="moped bicycle pedestrian custom1 trailer evehicle rail_urban ship private truck vip custom2 authority delivery rail_electric taxi tram army hov coach motorcycle passenger rail emergency" index="2" length="22.651817425696017" shape="-49.968199999999996,30.26755 -48.7726,29.66275 -39.1926,24.910400000000003 -29.6817,20.189799999999998" speed="36.11111111111111" width="3.0586164927953936"/>
	</edge>
	<edge from="14" function="normal" id="3672" length="43.429643178518916" numLanes="1" priority="1" speed="36.11111111111111" spreadType="center" to="15">
		<lane allow="moped bicycle pedestrian custom1 trailer evehicle rail_urban ship private vip custom2 authority delivery rail_electric taxi tram army hov coach motorcycle passenger rail emergency" index="0" length="43.429643178518916" shape="-29.6817,20.189799999999998 -24.5245,17.64945 -20.941699999999997,16.16495 -17.09585,14.8063 -14.31515,13.836 -11.8292,13.33915 -9.59435,13.12675 -7.2581500000000005,13.243749999999999 -5.61365,13.37815 -4.5042,13.6344 -3.56445,14.2174 -2.6452,15.567599999999999 -1.4895,17.49595 1.17795,21.733400000000003 2.7517,24.78515 4.22345,27.8973" speed="36.11111111111111" width="2.917182176347579"/>
	</edge>
	<edge from="15" function="normal" id="3456" length="24.71092057982317" numLanes="3" priority="1" speed="36.11111111111111" spreadType="center" to="16">
		<lane allow="moped bicycle pedestrian custom1 trailer evehicle rail_urban ship private truck vip custom2 authority delivery rail_electric taxi tram army hov coach motorcycle passenger bus rail emergency" index="0" length="24.71092057982317" shape="9.7501,25.1376 13.3459,32.331199999999995 17.19925,40.2483 20.5619,47.356700000000004" speed="36.11111111111111" width="3.0476685974692197"/>
		<lane allow="moped bicycle pedestrian custom1 trailer evehicle rail_urban ship private truck vip custom2 authority delivery rail_electric taxi tram army hov coach motorcycle passenger bus rail emergency" index="1" length="24.71092057982317" shape="6.921250000000001,26.53185 10.78135,34.098749999999995 14.4596,41.66435 17.89845,48.6948" speed="36.11111111111111" width="2.9148241130469597"/>
		<lane allow="moped bicycle pedestrian custom1 trailer evehicle rail_urban ship private truck vip custom2 authority delivery rail_electric taxi tram army hov coach motorcycle passenger bus rail emergency" index="2" length="24.71092057982317" shape="4.22345,27.8973 8.15195,35.659499999999994 11.9404,43.362049999999996 15.31195,50.00865" speed="36.11111111111111" width="2.888004380190584"/>
	</edge>
	<edge from="16" function="normal" id="3462" length="8.466645302154804" numLanes="3" priority="1" speed="36.11111111111111" spreadType="center" to="17">
		<lane allow="moped bicycle pedestrian custom1 trailer evehicle rail_urban ship private truck vip custom2 authority delivery rail_electric taxi tram army hov coach motorcycle passenger bus rail emergency" index="0" length="8.466645302154804" shape="20.5619,47.356700000000004 24.441200000000002,54.91945" speed="36.11111111111111" width="3.0476685974692197"/>
		<lane allow="moped bicycle pedestrian custom1 trailer evehicle rail_urban ship private truck vip custom2 authority delivery rail_electric taxi tram army hov coach motorcycle passenger bus rail emergency" index="1" length="8.466645302154804" shape="17.89845,48.6948 21.716549999999998,56.304500000000004" speed="36.11111111111111" width="2.9148241130469597"/>
		<lane allow="moped bicycle pedestrian custom1 trailer evehicle rail_urban ship private truck vip custom2 authority delivery rail_electric taxi tram army hov coach motorcycle passenger bus rail emergency" index="2" length="8.466645302154804" shape="15.31195,50.00865 19.052599999999998,57.604150000000004" speed="36.11111111111111" width="2.888004380190584"/>
	</edge>
	<edge from="17" function="normal" id="3470" length="7.6445065283836335" numLanes="3" priority="1" speed="36.11111111111111" spreadType="center" to="18">
		<lane allow="moped bicycle pedestrian custom1 trailer evehicle rail_urban ship private truck vip custom2 authority delivery rail_electric taxi tram army hov coach motorcycle passenger bus rail emergency" index="0" length="7.6445065283836335" shape="24.441200000000002,54.91945 27.8326,61.7705" speed="36.11111111111111" width="3.054999162029347"/>
		<lane allow="moped bicycle pedestrian custom1 trailer evehicle rail_urban ship private truck vip custom2 authority delivery rail_electric taxi tram army hov coach motorcycle passenger bus rail emergency" index="1" length="7.6445065283836335" shape="21.716549999999998,56.304500000000004 25.13205,63.15685" speed="36.11111111111111" width="2.998011102381047"/>
		<lane allow="moped bicycle pedestrian custom1 trailer evehicle rail_urban ship private truck vip custom2 authority delivery rail_electric taxi tram army hov coach motorcycle passenger bus rail emergency" index="2" length="7.6445065283836335" shape="19.052599999999998,57.604150000000004 22.45455,64.5314" speed="36.11111111111111" width="2.935087571095618"/>
	</edge>
	<edge from="14" function="normal" id="3636" length="10.130444963203741" numLanes="2" priority="1" speed="36.11111111111111" spreadType="center" to="19">
		<lane allow="moped bicycle pedestrian custom1 trailer evehicle rail_urban ship private truck vip custom2 authority delivery rail_electric taxi tram army hov coach motorcycle passenger bus rail emergency" index="0" length="10.130444963203741" shape="-32.41925,14.64995 -23.40815,9.9646" speed="36.11111111111111" width="3.232186618993402"/>
		<lane allow="moped bicycle pedestrian custom1 trailer evehicle rail_urban ship private truck vip custom2 authority delivery rail_electric taxi tram army hov coach motorcycle passenger bus rail emergency" index="1" length="10.130444963203741" shape="-30.98845,17.43055 -21.963749999999997,12.8283" speed="36.11111111111111" width="3.0254656269738045"/>
	</edge>
	<edge from="19" function="normal" id="3658" length="24.834013362889845" numLanes="2" priority="1" speed="36.11111111111111" spreadType="center" to="20">
		<lane allow="moped bicycle pedestrian custom1 trailer evehicle rail_urban ship private truck vip custom2 authority delivery rail_electric taxi tram army hov coach motorcycle passenger bus rail emergency" index="0" length="24.834013362889845" shape="-23.40815,9.9646 -20.512349999999998,8.4587 -17.85685,7.0779499999999995 -15.1399,5.66525 -12.1516,4.11135 -9.44995,2.70645 -6.80525,1.3313000000000001 -4.0897,-0.0807 -1.31795,-1.5219500000000001" speed="36.11111111111111" width="3.3089087884074417"/>
		<lane allow="moped bicycle pedestrian custom1 trailer evehicle rail_urban ship private truck vip custom2 authority delivery rail_electric taxi tram army hov coach motorcycle passenger bus rail emergency" index="1" length="24.834013362889845" shape="-21.963749999999997,12.8283 -19.095750000000002,11.3657 -16.42475,10.00365 -13.68645,8.6073 -10.72185,7.09555 -8.0114,5.7133 -5.36145,4.36205 -2.627,2.96775 0.1598,1.5466" speed="36.11111111111111" width="3.1057834261261688"/>
	</edge>
	<edge from="20" function="normal" id="3676" length="16.155928389455163" numLanes="2" priority="1" speed="36.11111111111111" spreadType="center" to="5">
		<lane allow="moped bicycle pedestrian custom1 trailer evehicle rail_urban ship private truck vip custom2 authority delivery rail_electric taxi tram army hov coach motorcycle passenger bus rail emergency" index="0" length="16.155928389455163" shape="-1.31795,-1.5219500000000001 4.70175,-4.5282 13.1358,-8.7402" speed="36.11111111111111" width="3.5034549033775217"/>
		<lane allow="moped bicycle pedestrian custom1 trailer evehicle rail_urban ship private truck vip custom2 authority delivery rail_electric taxi tram army hov coach motorcycle passenger bus rail emergency" index="1" length="16.155928389455163" shape="0.1598,1.5466 6.18445,-1.4386999999999999 14.68065,-5.6486" speed="36.11111111111111" width="3.3082245268421553"/>
	</edge>
	<edge from="14" function="normal" id="3600" length="24.19746751136553" numLanes="1" priority="1" speed="36.11111111111111" spreadType="center" to="9">
		<lane allow="moped bicycle pedestrian custom1 trailer evehicle rail_urban ship private vip custom2 authority delivery rail_electric taxi tram army hov coach motorcycle passenger rail emergency" index="0" length="24.19746751136553" shape="-32.41925,14.64995 -27.93095,12.254999999999999 -25.93795,11.064900000000002 -24.334899999999998,10.1543 -23.5918,9.67435 -23.1677,9.08675 -23.1319,8.2798 -23.539099999999998,6.8682 -24.34,4.90205 -25.32045,2.8037 -28.113349999999997,-3.19825" speed="36.11111111111111" width="3.232186618993402"/>
	</edge>
	<edge from="21" function="normal" id="3502" length="11.539017429977406" numLanes="2" priority="1" speed="36.11111111111111" spreadType="center" to="22">
		<lane allow="moped bicycle pedestrian custom1 trailer evehicle rail_urban ship private truck vip custom2 authority delivery rail_electric taxi tram army hov coach motorcycle passenger bus rail emergency" index="0" length="11.539017429977406" shape="32.84975,-3.1029999999999998 27.80005,-0.6345999999999999 22.45565,1.9779499999999999" speed="36.11111111111111" width="3.607231317783766"/>
		<lane allow="moped bicycle pedestrian custom1 trailer evehicle rail_urban ship private truck vip custom2 authority delivery rail_electric taxi tram army hov coach motorcycle passenger bus rail emergency" index="1" length="11.539017429977406" shape="31.24515,-6.36885 26.269550000000002,-3.9362 20.878700000000002,-1.30075" speed="36.11111111111111" width="3.630791497731588"/>
	</edge>
	<edge from="22" function="normal" id="3528" length="6.575577396130322" numLanes="3" priority="1" speed="36.11111111111111" spreadType="center" to="23">
		<lane allow="moped bicycle pedestrian custom1 trailer evehicle rail_urban ship private truck vip custom2 authority delivery rail_electric taxi tram army hov coach motorcycle passenger bus rail emergency" index="0" length="6.575577396130322" shape="22.45565,1.9779499999999999 18.0328,7.9998000000000005" speed="36.11111111111111" width="3.2457372413675123"/>
		<lane allow="moped bicycle pedestrian custom1 trailer evehicle rail_urban ship private truck vip custom2 authority delivery rail_electric taxi tram army hov coach motorcycle passenger bus rail emergency" index="1" length="6.575577396130322" shape="22.45565,1.9779499999999999 16.54365,4.91795" speed="36.11111111111111" width="3.6024336135451556"/>
		<lane allow="moped bicycle pedestrian custom1 trailer evehicle rail_urban ship private truck vip custom2 authority delivery rail_electric taxi tram army hov coach motorcycle passenger bus rail emergency" index="2" length="6.575577396130322" shape="20.878700000000002,-1.30075 14.990649999999999,1.62655" speed="36.11111111111111" width="3.6713079753679065"/>
	</edge>
	<edge from="23" function="normal" id="3534" length="6.6083636571393365" numLanes="3" priority="1" speed="36.11111111111111" spreadType="center" to="24">
		<lane allow="moped bicycle pedestrian custom1 trailer evehicle rail_urban ship private truck vip custom2 authority delivery rail_electric taxi tram army hov coach motorcycle passenger bus rail emergency" index="0" length="6.6083636571393365" shape="18.0328,7.9998000000000005 12.05325,10.88925" speed="36.11111111111111" width="3.190167196245363"/>
		<lane allow="moped bicycle pedestrian custom1 trailer evehicle rail_urban ship private truck vip custom2 authority delivery rail_electric taxi tram army hov coach motorcycle passenger bus rail emergency" index="1" length="6.6083636571393365" shape="16.54365,4.91795 10.6035,7.8627" speed="36.11111111111111" width="3.5215687697388507"/>