<!-- generated on 2020-12-18 15:58:41.199222 by ipykernel_launcher.py v1_2_0+5214-53edc58fcd
-->
<nodes>
	<node id="1" type="from" x="14.342740000000001" y="68.6957"/>
	<node id="2" type="to" x="10.87575" y="61.71025999999999"/>
	<node id="3" type="to" x="5.701591666666666" y="54.794683333333325"/>
	<node id="4" type="to" x="-5.294625" y="32.698708333333336"/>
	<node id="5" type="to" x="13.908225" y="-7.1944"/>
	<node id="6" type="to" x="26.745216666666664" y="-15.52748333333333"/>
	<node id="7" type="to" x="-12.6267" y="21.176766666666662"/>
	<node id="8" type="to" x="-19.953" y="6.282583333333332"/>
	<node id="9" type="to" x="-25.3349" y="-4.656666666666666"/>
	<node id="10" type="to" x="-42.317433333333334" y="-43.18526666666666"/>
	<node id="11" type="to" x="-25.578200000000002" y="31.02735"/>
	<node id="12" type="to" x="-46.291083333333326" y="37.53686666666667"/>
	<node id="13" type="from" x="-51.35373333333333" y="27.528483333333337"/>
	<node id="14" type="to" x="-31.029799999999998" y="17.42343333333333"/>
	<node id="15" type="to" x="4.22345" y="27.8973"/>
	<node id="16" type="to" x="17.9241" y="48.686716666666676"/>
	<node id="17" type="to" x="21.736783333333335" y="56.27603333333334"/>
	<node id="18" type="to" x="25.139733333333336" y="63.15291666666667"/>
	<node id="19" type="to" x="-22.68595" y="11.396450000000002"/>
	<node id="20" type="to" x="-0.579075" y="0.01232499999999992"/>
	<node id="21" type="from" x="32.04745" y="-4.735925"/>
	<node id="22" type="to" x="21.667175" y="0.3385999999999999"/>
	<node id="23" type="to" x="16.522366666666667" y="4.8481000000000005"/>
	<node id="24" type="to" x="10.579116666666668" y="7.778383333333333"/>
	<node id="25" type="to" x="3.849575" y="9.208549999999999"/>
	<node id="26" type="to" x="-18.2378" y="20.21445"/>
	<node id="27" type="from" x="-29.93786" y="-49.285039999999995"/>
	<node id="28" type="to" x="-11.324499999999999" y="-12.02356"/>
	<node id="29" type="to" x="-6.175016666666667" y="-0.9496333333333333"/>
	<node id="30" type="to" x="1.1850000000000003" y="14.425866666666666"/>
</nodes>
