<?xml version="1.0" encoding="UTF-8"?>

<!-- generated on Fri Dec 18 15:58:41 2020 by Eclipse SUMO netconvert Version 1.8.0
<configuration xmlns:xsi="http://www.w3.org/2001/XMLSchema-instance" xsi:noNamespaceSchemaLocation="http://sumo.dlr.de/xsd/netconvertConfiguration.xsd">

    <input>
        <node-files value="./converted_scenarios/NGSIM/Lankershim/USA_Lanker-1_6_I-1-1/nodes.net.xml"/>
        <edge-files value="./converted_scenarios/NGSIM/Lankershim/USA_Lanker-1_6_I-1-1/edges.net.xml"/>
        <connection-files value="./converted_scenarios/NGSIM/Lankershim/USA_Lanker-1_6_I-1-1/_connections.net.xml"/>
        <tllogic-files value="./converted_scenarios/NGSIM/Lankershim/USA_Lanker-1_6_I-1-1/_tll.net.xml"/>
    </input>

    <output>
        <output-file value="./converted_scenarios/NGSIM/Lankershim/USA_Lanker-1_6_I-1-1/USA_Lanker-1_6_I-1-1.net.xml"/>
    </output>

    <processing>
        <plain.extend-edge-shape value="true"/>
        <geometry.remove.keep-edges.explicit value="true"/>
        <geometry.avoid-overlap value="true"/>
        <offset.disable-normalization value="true"/>
    </processing>

    <junctions>
        <no-turnarounds value="true"/>
        <junctions.internal-link-detail value="20"/>
    </junctions>

    <report>
        <aggregate-warnings value="5"/>
    </report>

    <random_number>
        <seed value="1234"/>
    </random_number>

</configuration>
-->

<net version="1.6" junctionCornerDetail="5" junctionLinkDetail="20" limitTurnSpeed="5.50" xmlns:xsi="http://www.w3.org/2001/XMLSchema-instance" xsi:noNamespaceSchemaLocation="http://sumo.dlr.de/xsd/net_file.xsd">

    <location netOffset="0.00,0.00" convBoundary="-51.35,-49.29,32.05,68.70" origBoundary="-52.75,-52.01,32.85,71.45" projParameter="!"/>

    <edge id=":11_0" function="internal">
        <lane id=":11_0_0" index="0" disallow="bus truck rail_fast" speed="36.11" length="8.30" width="4.58" shape="-32.69,33.34 -24.83,30.67"/>
    </edge>
    <edge id=":11_1" function="internal">
        <lane id=":11_1_0" index="0" disallow="rail_fast" speed="36.11" length="1.01" width="3.11" shape="-25.74,25.81 -26.67,26.24"/>
        <lane id=":11_1_1" index="1" disallow="rail_fast" speed="36.11" length="1.01" width="3.66" shape="-27.07,22.67 -27.98,23.10"/>
    </edge>
    <edge id=":14_0" function="internal">
        <lane id=":14_0_0" index="0" disallow="bus truck rail_fast" speed="7.94" length="13.70" width="3.23" shape="-34.09,15.48 -32.87,14.87 -31.72,14.28 -30.64,13.72 -29.63,13.19 -28.69,12.68 -27.82,12.19 -27.01,11.73 -26.28,11.30 -25.62,10.89 -25.02,10.50 -24.50,10.14 -24.04,9.81 -23.66,9.50 -23.34,9.22 -23.09,8.96 -22.92,8.73 -22.81,8.52 -22.77,8.34 -22.81,8.19"/>
    </edge>
    <edge id=":14_1" function="internal">
        <lane id=":14_1_0" index="0" disallow="rail_fast" speed="36.11" length="13.45" width="3.23" shape="-34.09,15.48 -22.16,9.32"/>
        <lane id=":14_1_1" index="1" disallow="bus rail_fast" speed="36.11" length="13.45" width="3.03" shape="-32.71,18.29 -20.70,12.18"/>
    </edge>
    <edge id=":14_3" function="internal">
        <lane id=":14_3_0" index="0" disallow="bus truck rail_fast" speed="36.11" length="2.11" width="2.92" shape="-31.35,21.02 -33.25,21.95"/>
    </edge>
    <edge id=":15_0" function="internal">
        <lane id=":15_0_0" index="0" disallow="bus truck rail_fast" speed="9.12" length="13.80" width="3.05" shape="9.38,13.05 9.01,13.47 8.69,13.93 8.41,14.41 8.18,14.92 7.99,15.46 7.85,16.03 7.76,16.63 7.71,17.25 7.71,17.91 7.75,18.59 7.84,19.30 7.97,20.04 8.15,20.80 8.37,21.60 8.64,22.42 8.96,23.27 9.32,24.15 9.73,25.06 10.18,26.00"/>
    </edge>
    <edge id=":15_1" function="internal">
        <lane id=":15_1_0" index="0" disallow="rail_fast" speed="36.11" length="13.06" width="3.05" shape="4.54,14.27 10.18,26.00"/>
        <lane id=":15_1_1" index="1" disallow="rail_fast" speed="36.11" length="13.06" width="2.91" shape="1.72,15.62 7.37,27.40"/>
        <lane id=":15_1_2" index="2" disallow="rail_fast" speed="36.11" length="13.06" width="2.89" shape="-1.01,16.94 4.66,28.76"/>
    </edge>
    <edge id=":15_4" function="internal">
        <lane id=":15_4_0" index="0" disallow="bus truck rail_fast" speed="36.11" length="13.55" width="2.89" shape="-1.86,16.88 4.66,28.76"/>
    </edge>
    <edge id=":16_0" function="internal">
        <lane id=":16_0_0" index="0" disallow="rail_fast" speed="36.11" length="0.24" width="3.05" shape="20.51,47.25 20.61,47.46"/>
        <lane id=":16_0_1" index="1" disallow="rail_fast" speed="36.11" length="0.24" width="2.91" shape="17.85,48.59 17.95,48.80"/>
        <lane id=":16_0_2" index="2" disallow="rail_fast" speed="36.11" length="0.24" width="2.89" shape="15.25,49.88 15.36,50.11"/>
    </edge>
    <edge id=":17_0" function="internal">
        <lane id=":17_0_0" index="0" disallow="rail_fast" speed="36.11" length="3.05" width="3.05" shape="23.73,53.54 25.11,56.26"/>
        <lane id=":17_0_1" index="1" disallow="rail_fast" speed="36.11" length="3.05" width="3.00" shape="21.01,54.90 22.37,57.62"/>
        <lane id=":17_0_2" index="2" disallow="rail_fast" speed="36.11" length="3.05" width="2.94" shape="18.37,56.22 19.71,58.94"/>
    </edge>
    <edge id=":19_0" function="internal">
        <lane id=":19_0_0" index="0" disallow="rail_fast" speed="36.11" length="0.12" width="3.31" shape="-21.99,9.23 -22.09,9.28"/>
        <lane id=":19_0_1" index="1" disallow="rail_fast" speed="36.11" length="0.12" width="3.11" shape="-20.52,12.09 -20.63,12.15"/>
    </edge>
    <edge id=":2_0" function="internal">
        <lane id=":2_0_0" index="0" disallow="rail_fast" speed="21.97" length="7.43" width="2.94" shape="6.63,66.78 6.37,66.29 6.13,65.84 5.91,65.44 5.70,65.09 5.50,64.77 5.31,64.48 5.12,64.22 4.92,63.97 4.73,63.74 4.52,63.52 4.31,63.31 4.08,63.09 3.84,62.86 3.57,62.63 3.29,62.37 2.97,62.09 2.63,61.78 2.26,61.44 1.85,61.06"/>
        <lane id=":2_0_1" index="1" disallow="rail_fast" speed="36.11" length="7.43" width="2.94" shape="6.63,66.78 3.32,60.23"/>
        <lane id=":2_0_2" index="2" disallow="rail_fast" speed="36.11" length="7.43" width="3.05" shape="9.29,65.44 5.96,58.73"/>
        <lane id=":2_0_3" index="3" disallow="rail_fast" speed="36.11" length="7.43" width="3.03" shape="12.02,64.06 8.62,57.22"/>
        <lane id=":2_0_4" index="4" disallow="rail_fast" speed="36.11" length="7.43" width="3.05" shape="14.75,62.68 11.28,55.71"/>
        <lane id=":2_0_5" index="5" disallow="rail_fast" speed="36.11" length="7.43" width="3.12" shape="17.50,61.30 14.51,55.23"/>
    </edge>
    <edge id=":20_0" function="internal">
        <lane id=":20_0_0" index="0" disallow="rail_fast" speed="36.11" length="3.06" width="3.50" shape="-2.72,-0.79 0.02,-2.19"/>
        <lane id=":20_0_1" index="1" disallow="rail_fast" speed="36.11" length="3.06" width="3.31" shape="-1.21,2.24 1.52,0.87"/>
    </edge>
    <edge id=":22_0" function="internal">
        <lane id=":22_0_0" index="0" disallow="rail_fast" speed="14.45" length="8.28" width="3.25" shape="26.10,0.19 25.56,0.46 25.07,0.70 24.63,0.93 24.23,1.14 23.87,1.34 23.54,1.54 23.24,1.73 22.96,1.93 22.70,2.13 22.45,2.34 22.21,2.56 21.97,2.81 21.73,3.07 21.48,3.37 21.22,3.69 20.94,4.05 20.65,4.45 20.32,4.89 19.96,5.37"/>
        <lane id=":22_0_1" index="1" disallow="rail_fast" speed="36.11" length="8.28" width="3.60" shape="26.10,0.19 18.87,3.76"/>
        <lane id=":22_0_2" index="2" disallow="rail_fast" speed="36.11" length="8.28" width="3.67" shape="24.52,-3.08 16.81,0.72"/>
    </edge>
    <edge id=":23_0" function="internal">
        <lane id=":23_0_0" index="0" disallow="rail_fast" speed="9.74" length="3.41" width="3.19" shape="18.63,7.19 18.46,7.41 18.31,7.60 18.17,7.77 18.03,7.91 17.90,8.04 17.77,8.15 17.64,8.24 17.51,8.33 17.38,8.40 17.25,8.47 17.11,8.54 16.97,8.60 16.81,8.66 16.65,8.72 16.47,8.80 16.28,8.87 16.07,8.96 15.84,9.06 15.59,9.18"/>
        <lane id=":23_0_1" index="1" disallow="rail_fast" speed="36.11" length="3.41" width="3.52" shape="17.15,4.62 14.12,6.12"/>
        <lane id=":23_0_2" index="2" disallow="rail_fast" speed="36.11" length="3.41" width="3.68" shape="15.34,1.45 12.54,2.85"/>
    </edge>
    <edge id=":24_0" function="internal">
        <lane id=":24_0_0" index="0" disallow="bus truck rail_fast" speed="14.27" length="3.68" width="2.93" shape="12.97,10.45 12.72,10.57 12.50,10.67 12.29,10.76 12.11,10.85 11.94,10.93 11.78,11.00 11.63,11.07 11.50,11.14 11.37,11.22 11.24,11.29 11.12,11.37 11.00,11.46 10.87,11.56 10.74,11.67 10.60,11.79 10.45,11.93 10.29,12.08 10.12,12.26 9.93,12.46"/>
    </edge>
    <edge id=":24_1" function="internal">
        <lane id=":24_1_0" index="0" disallow="rail_fast" speed="36.11" length="11.27" width="3.46" shape="11.52,7.41 1.43,12.40"/>
        <lane id=":24_1_1" index="1" disallow="rail_fast" speed="36.11" length="11.27" width="3.70" shape="9.95,4.15 -0.13,9.20"/>
    </edge>
    <edge id=":24_3" function="internal">
        <lane id=":24_3_0" index="0" disallow="bus truck rail_fast" speed="17.55" length="16.88" width="3.01" shape="9.95,4.15 8.81,4.70 7.72,5.20 6.69,5.65 5.70,6.04 4.75,6.38 3.84,6.68 2.97,6.93 2.12,7.15 1.31,7.32 0.51,7.45 -0.26,7.55 -1.03,7.63 -1.78,7.67 -2.52,7.68 -3.27,7.67 -4.01,7.65 -4.77,7.60 -5.53,7.53 -6.31,7.46"/>
    </edge>
    <edge id=":25_0" function="internal">
        <lane id=":25_0_0" index="0" disallow="rail_fast" speed="36.11" length="2.24" width="3.21" shape="1.25,12.49 3.26,11.50"/>
        <lane id=":25_0_1" index="1" disallow="rail_fast" speed="36.11" length="2.24" width="3.68" shape="-0.31,9.29 1.69,8.29"/>
    </edge>
    <edge id=":26_0" function="internal">
        <lane id=":26_0_0" index="0" disallow="rail_fast" speed="36.11" length="14.96" width="3.17" shape="-6.41,16.28 -19.83,22.91"/>
        <lane id=":26_0_1" index="1" disallow="rail_fast" speed="36.11" length="14.96" width="3.68" shape="-7.99,13.14 -21.36,19.84"/>
    </edge>
    <edge id=":26_2" function="internal">
        <lane id=":26_2_0" index="0" disallow="bus truck rail_fast" speed="11.28" length="15.17" width="3.68" shape="-12.52,8.26 -12.68,9.08 -12.87,9.87 -13.10,10.64 -13.37,11.39 -13.66,12.12 -13.99,12.82 -14.36,13.50 -14.76,14.15 -15.19,14.79 -15.65,15.40 -16.15,15.98 -16.68,16.55 -17.25,17.09 -17.85,17.60 -18.48,18.10 -19.15,18.57 -19.85,19.01 -20.59,19.44 -21.36,19.84"/>
    </edge>
    <edge id=":28_0" function="internal">
        <lane id=":28_0_0" index="0" disallow="bus truck rail_fast" speed="10.22" length="10.24" width="3.11" shape="-6.53,-16.82 -6.29,-16.41 -6.03,-16.02 -5.75,-15.65 -5.45,-15.28 -5.12,-14.93 -4.78,-14.59 -4.41,-14.27 -4.01,-13.96 -3.60,-13.66 -3.16,-13.37 -2.70,-13.10 -2.21,-12.84 -1.71,-12.59 -1.18,-12.35 -0.63,-12.13 -0.06,-11.92 0.54,-11.73 1.16,-11.55 1.80,-11.38"/>
    </edge>
    <edge id=":28_1" function="internal">
        <lane id=":28_1_0" index="0" disallow="bus truck rail_fast" speed="11.58" length="11.05" width="3.13" shape="-9.58,-15.21 -9.22,-14.50 -8.87,-13.86 -8.55,-13.29 -8.23,-12.78 -7.91,-12.33 -7.59,-11.93 -7.27,-11.57 -6.94,-11.25 -6.59,-10.97 -6.23,-10.71 -5.84,-10.46 -5.43,-10.24 -4.98,-10.02 -4.49,-9.80 -3.96,-9.58 -3.38,-9.35 -2.75,-9.10 -2.07,-8.84 -1.32,-8.54"/>
    </edge>
    <edge id=":28_2" function="internal">
        <lane id=":28_2_0" index="0" disallow="rail_fast" speed="36.11" length="10.45" width="3.12" shape="-9.58,-15.21 -5.01,-5.65"/>
        <lane id=":28_2_1" index="1" disallow="rail_fast" speed="36.11" length="10.45" width="3.06" shape="-12.31,-13.77 -7.81,-4.34"/>
        <lane id=":28_2_2" index="2" disallow="rail_fast" speed="36.11" length="10.45" width="2.98" shape="-15.01,-12.36 -10.55,-3.05"/>
    </edge>
    <edge id=":28_5" function="internal">
        <lane id=":28_5_0" index="0" disallow="bus truck rail_fast" speed="36.11" length="10.20" width="2.87" shape="-17.69,-10.94 -17.36,-10.26 -17.05,-9.64 -16.77,-9.08 -16.52,-8.57 -16.29,-8.11 -16.07,-7.67 -15.88,-7.27 -15.69,-6.89 -15.52,-6.51 -15.35,-6.14 -15.19,-5.77 -15.02,-5.38 -14.86,-4.96 -14.69,-4.52 -14.51,-4.05 -14.31,-3.52 -14.11,-2.95 -13.88,-2.31 -13.63,-1.60"/>
    </edge>
    <edge id=":29_0" function="internal">
        <lane id=":29_0_0" index="0" disallow="rail_fast" speed="36.11" length="3.22" width="3.12" shape="-4.13,-3.80 -2.75,-0.89"/>
        <lane id=":29_0_1" index="1" disallow="rail_fast" speed="36.11" length="3.22" width="3.06" shape="-6.89,-2.40 -5.50,0.51"/>
        <lane id=":29_0_2" index="2" disallow="rail_fast" speed="36.11" length="3.22" width="2.95" shape="-9.58,-1.03 -8.19,1.88"/>
    </edge>
    <edge id=":3_0" function="internal">
        <lane id=":3_0_0" index="0" disallow="rail_fast" speed="15.71" length="3.50" width="3.22" shape="1.47,60.70 1.26,60.51 1.07,60.35 0.89,60.21 0.72,60.09 0.56,59.98 0.41,59.88 0.26,59.80 0.13,59.71 -0.00,59.63 -0.13,59.54 -0.25,59.46 -0.37,59.36 -0.49,59.25 -0.61,59.13 -0.73,58.99 -0.85,58.83 -0.97,58.64 -1.09,58.43 -1.22,58.19"/>
        <lane id=":3_0_1" index="1" disallow="rail_fast" speed="36.11" length="3.50" width="2.87" shape="3.13,59.85 1.61,56.83"/>
        <lane id=":3_0_2" index="2" disallow="rail_fast" speed="36.11" length="3.50" width="3.00" shape="5.82,58.46 4.35,55.50"/>
        <lane id=":3_0_3" index="3" disallow="rail_fast" speed="36.11" length="3.50" width="3.02" shape="8.54,57.06 7.09,54.15"/>
        <lane id=":3_0_4" index="4" disallow="rail_fast" speed="36.11" length="3.50" width="3.02" shape="11.23,55.62 9.80,52.77"/>
        <lane id=":3_0_5" index="5" disallow="rail_fast" speed="36.11" length="3.50" width="3.03" shape="14.42,55.05 12.59,51.36"/>
    </edge>
    <edge id=":30_0" function="internal">
        <lane id=":30_0_0" index="0" disallow="rail_fast" speed="36.11" length="2.64" width="3.14" shape="3.30,11.69 4.45,14.09"/>
        <lane id=":30_0_1" index="1" disallow="rail_fast" speed="36.11" length="2.64" width="3.10" shape="0.50,13.06 1.63,15.44"/>
        <lane id=":30_0_2" index="2" disallow="rail_fast" speed="36.11" length="2.64" width="2.93" shape="-2.23,14.38 -1.09,16.76"/>
    </edge>
    <edge id=":4_0" function="internal">
        <lane id=":4_0_0" index="0" disallow="bus truck rail_fast" speed="36.11" length="5.96" width="3.84" shape="-10.48,39.77 -10.69,39.38 -10.87,39.02 -11.03,38.69 -11.18,38.40 -11.31,38.13 -11.43,37.88 -11.55,37.65 -11.66,37.43 -11.78,37.22 -11.90,37.01 -12.02,36.81 -12.15,36.60 -12.29,36.38 -12.45,36.16 -12.63,35.91 -12.82,35.65 -13.04,35.37 -13.29,35.05 -13.57,34.70"/>
    </edge>
    <edge id=":4_1" function="internal">
        <lane id=":4_1_0" index="0" disallow="rail_fast" speed="36.11" length="6.33" width="2.87" shape="-7.53,38.26 -10.38,32.58"/>
        <lane id=":4_1_1" index="1" disallow="rail_fast" speed="36.11" length="6.33" width="3.02" shape="-4.87,36.91 -7.72,31.26"/>
        <lane id=":4_1_2" index="2" disallow="rail_fast" speed="36.11" length="6.33" width="3.12" shape="-2.14,35.52 -4.94,29.88"/>
    </edge>
    <edge id=":4_4" function="internal">
        <lane id=":4_4_0" index="0" disallow="bus truck rail_fast" speed="36.11" length="6.26" width="2.93" shape="0.60,34.12 -2.20,28.52"/>
    </edge>
    <edge id=":4_5" function="internal">
        <lane id=":4_5_0" index="0" disallow="bus truck rail_fast" speed="36.11" length="6.22" width="3.03" shape="3.31,32.73 0.54,27.17"/>
    </edge>
    <edge id=":5_0" function="internal">
        <lane id=":5_0_0" index="0" disallow="bus truck rail_fast" speed="10.83" length="9.96" width="3.88" shape="2.65,-11.16 3.29,-11.00 3.87,-10.86 4.41,-10.74 4.90,-10.64 5.35,-10.56 5.78,-10.49 6.18,-10.45 6.56,-10.44 6.93,-10.44 7.29,-10.47 7.66,-10.53 8.03,-10.61 8.41,-10.72 8.82,-10.85 9.25,-11.02 9.71,-11.21 10.20,-11.44 10.74,-11.69 11.33,-11.98"/>
        <lane id=":5_0_1" index="1" disallow="bus truck rail_fast" speed="12.01" length="9.96" width="3.51" shape="2.53,-7.60 3.30,-7.42 4.00,-7.26 4.65,-7.12 5.24,-7.01 5.78,-6.91 6.29,-6.84 6.78,-6.80 7.23,-6.78 7.68,-6.79 8.12,-6.83 8.55,-6.90 9.00,-7.00 9.46,-7.13 9.94,-7.30 10.46,-7.50 11.01,-7.73 11.61,-8.00 12.26,-8.31 12.97,-8.66"/>
    </edge>
    <edge id=":5_2" function="internal">
        <lane id=":5_2_0" index="0" disallow="bus truck rail_fast" speed="36.11" length="10.89" width="3.51" shape="3.31,-3.56 12.97,-8.66"/>
        <lane id=":5_2_1" index="1" disallow="bus truck rail_fast" speed="36.11" length="10.89" width="3.38" shape="5.05,-0.24 5.72,-0.71 6.32,-1.13 6.86,-1.50 7.36,-1.83 7.82,-2.13 8.24,-2.40 8.65,-2.64 9.04,-2.87 9.42,-3.08 9.80,-3.28 10.18,-3.48 10.59,-3.68 11.01,-3.88 11.47,-4.10 11.97,-4.34 12.51,-4.60 13.11,-4.88 13.77,-5.20 14.50,-5.56"/>
    </edge>
    <edge id=":5_4" function="internal">
        <lane id=":5_4_0" index="0" disallow="rail_fast" speed="36.11" length="13.99" width="3.51" shape="0.45,-2.40 12.97,-8.66"/>
        <lane id=":5_4_1" index="1" disallow="rail_fast" speed="36.11" length="13.99" width="3.38" shape="1.97,0.65 14.50,-5.56"/>
    </edge>
    <edge id=":7_0" function="internal">
        <lane id=":7_0_0" index="0" disallow="rail_fast" speed="36.11" length="3.02" width="3.06" shape="-14.69,23.88 -16.03,21.17"/>
        <lane id=":7_0_1" index="1" disallow="rail_fast" speed="36.11" length="3.02" width="2.99" shape="-11.97,22.55 -13.29,19.83"/>
        <lane id=":7_0_2" index="2" disallow="rail_fast" speed="36.11" length="3.02" width="3.06" shape="-9.21,21.20 -10.54,18.48"/>
    </edge>
    <edge id=":8_0" function="internal">
        <lane id=":8_0_0" index="0" disallow="rail_fast" speed="36.11" length="0.10" width="3.29" shape="-22.00,9.12 -22.02,9.09"/>
        <lane id=":8_0_1" index="1" disallow="rail_fast" speed="36.11" length="0.10" width="2.97" shape="-19.22,7.69 -19.24,7.66"/>
        <lane id=":8_0_2" index="2" disallow="rail_fast" speed="36.11" length="0.10" width="3.01" shape="-16.53,6.31 -16.54,6.28"/>
    </edge>
    <edge id=":9_0" function="internal">
        <lane id=":9_0_0" index="0" disallow="bus rail_fast" speed="36.11" length="15.32" width="2.85" shape="-22.11,8.91 -28.90,-4.82"/>
        <lane id=":9_0_1" index="1" disallow="rail_fast" speed="36.11" length="15.32" width="2.97" shape="-19.32,7.48 -26.06,-6.28"/>
        <lane id=":9_0_2" index="2" disallow="rail_fast" speed="36.11" length="15.32" width="2.96" shape="-16.63,6.10 -23.38,-7.65"/>
    </edge>
    <edge id=":9_3" function="internal">
        <lane id=":9_3_0" index="0" disallow="bus truck rail_fast" speed="14.99" length="18.43" width="2.96" shape="-12.10,6.40 -12.81,6.08 -13.50,5.72 -14.15,5.32 -14.79,4.89 -15.40,4.41 -16.00,3.89 -16.58,3.32 -17.15,2.70 -17.71,2.04 -18.27,1.33 -18.82,0.56 -19.37,-0.26 -19.91,-1.13 -20.47,-2.06 -21.03,-3.05 -21.59,-4.11 -22.18,-5.22 -22.77,-6.40 -23.38,-7.65"/>
    </edge>
    <edge id=":9_4" function="internal">
        <lane id=":9_4_0" index="0" disallow="bus truck rail_fast" speed="36.11" length="14.16" width="2.85" shape="-22.89,8.01 -28.90,-4.82"/>
    </edge>

    <edge id="3431" from="1" to="2" priority="1" spreadType="center" length="7.75">
        <lane id="3431_0" index="0" disallow="rail_fast" speed="36.11" length="7.75" width="2.84" customShape="1" shape="8.93,71.35 6.63,66.78"/>
        <lane id="3431_1" index="1" disallow="rail_fast" speed="36.11" length="7.75" width="3.06" customShape="1" shape="11.61,70.10 9.29,65.44"/>
        <lane id="3431_2" index="2" disallow="rail_fast" speed="36.11" length="7.75" width="3.03" customShape="1" shape="14.32,68.71 12.02,64.06"/>
        <lane id="3431_3" index="3" disallow="rail_fast" speed="36.11" length="7.75" width="3.05" customShape="1" shape="17.06,67.36 14.75,62.68"/>
        <lane id="3431_4" index="4" disallow="rail_fast" speed="36.11" length="7.75" width="3.05" customShape="1" shape="19.81,66.01 17.50,61.30"/>
    </edge>
    <edge id="3438" from="2" to="3" priority="1" spreadType="center" length="8.44">
        <lane id="3438_0" index="0" disallow="rail_fast" speed="36.11" length="8.44" width="2.94" customShape="1" shape="1.85,61.06 1.47,60.70"/>
        <lane id="3438_1" index="1" disallow="rail_fast" speed="36.11" length="8.44" width="2.94" customShape="1" shape="3.32,60.23 3.13,59.85"/>
        <lane id="3438_2" index="2" disallow="rail_fast" speed="36.11" length="8.44" width="3.05" customShape="1" shape="5.96,58.73 5.82,58.46"/>
        <lane id="3438_3" index="3" disallow="rail_fast" speed="36.11" length="8.44" width="3.03" customShape="1" shape="8.62,57.22 8.54,57.06"/>
        <lane id="3438_4" index="4" disallow="rail_fast" speed="36.11" length="8.44" width="3.05" customShape="1" shape="11.28,55.71 11.23,55.62"/>
        <lane id="3438_5" index="5" disallow="rail_fast" speed="36.11" length="8.44" width="3.12" customShape="1" shape="14.51,55.23 14.42,55.05"/>
    </edge>
    <edge id="3450" from="3" to="4" priority="1" spreadType="center" length="24.49">
        <lane id="3450_0" index="0" disallow="rail_fast" speed="36.11" length="24.49" width="3.22" customShape="1" shape="-1.22,58.19 -4.40,51.93 -8.19,44.24 -10.48,39.77"/>
        <lane id="3450_1" index="1" disallow="rail_fast" speed="36.11" length="24.49" width="2.87" customShape="1" shape="1.61,56.83 -1.40,50.78 -5.22,42.83 -7.53,38.26"/>
        <lane id="3450_2" index="2" disallow="rail_fast" speed="36.11" length="24.49" width="3.00" customShape="1" shape="4.35,55.50 1.33,49.44 -2.52,41.50 -4.87,36.91"/>
        <lane id="3450_3" index="3" disallow="rail_fast" speed="36.11" length="24.49" width="3.02" customShape="1" shape="7.09,54.15 4.00,47.99 0.11,40.05 -2.14,35.52"/>
        <lane id="3450_4" index="4" disallow="rail_fast" speed="36.11" length="24.49" width="3.02" customShape="1" shape="9.80,52.77 6.69,46.54 2.80,38.59 0.60,34.12"/>
        <lane id="3450_5" index="5" disallow="rail_fast" speed="36.11" length="24.49" width="3.03" customShape="1" shape="12.59,51.36 9.38,45.03 5.50,37.09 3.31,32.73"/>
    </edge>
    <edge id="3456" from="15" to="16" priority="1" spreadType="center" length="24.71">
        <lane id="3456_0" index="0" disallow="rail_fast" speed="36.11" length="24.71" width="3.05" customShape="1" shape="10.18,26.00 13.35,32.33 17.20,40.25 20.51,47.25"/>
        <lane id="3456_1" index="1" disallow="rail_fast" speed="36.11" length="24.71" width="2.91" customShape="1" shape="7.37,27.40 10.78,34.10 14.46,41.66 17.85,48.59"/>
        <lane id="3456_2" index="2" disallow="rail_fast" speed="36.11" length="24.71" width="2.89" customShape="1" shape="4.66,28.76 8.15,35.66 11.94,43.36 15.25,49.88"/>
    </edge>
    <edge id="3462" from="16" to="17" priority="1" spreadType="center" length="8.47">
        <lane id="3462_0" index="0" disallow="rail_fast" speed="36.11" length="8.47" width="3.05" customShape="1" shape="20.61,47.46 23.73,53.54"/>
        <lane id="3462_1" index="1" disallow="rail_fast" speed="36.11" length="8.47" width="2.91" customShape="1" shape="17.95,48.80 21.01,54.90"/>
        <lane id="3462_2" index="2" disallow="rail_fast" speed="36.11" length="8.47" width="2.89" customShape="1" shape="15.36,50.11 18.37,56.22"/>
    </edge>
    <edge id="3470" from="17" to="18" priority="1" spreadType="center" length="7.64">
        <lane id="3470_0" index="0" disallow="rail_fast" speed="36.11" length="7.64" width="3.05" customShape="1" shape="25.11,56.26 27.85,61.81"/>
        <lane id="3470_1" index="1" disallow="rail_fast" speed="36.11" length="7.64" width="3.00" customShape="1" shape="22.37,57.62 25.13,63.16"/>
        <lane id="3470_2" index="2" disallow="rail_fast" speed="36.11" length="7.64" width="2.94" customShape="1" shape="19.71,58.94 22.45,64.53"/>
    </edge>
    <edge id="3479" from="13" to="14" priority="1" spreadType="center" length="22.65">
        <lane id="3479_0" index="0" disallow="rail_fast" speed="36.11" length="22.65" width="3.23" customShape="1" shape="-52.75,24.76 -51.61,24.19 -42.03,19.43 -34.09,15.48"/>
        <lane id="3479_1" index="1" disallow="bus rail_fast" speed="36.11" length="22.65" width="3.02" customShape="1" shape="-51.34,27.55 -50.18,26.97 -40.60,22.21 -32.71,18.29"/>
        <lane id="3479_2" index="2" disallow="bus rail_fast" speed="36.11" length="22.65" width="3.06" customShape="1" shape="-49.97,30.27 -48.77,29.66 -39.19,24.91 -31.35,21.02"/>
    </edge>
    <edge id="3487" from="11" to="12" priority="1" spreadType="center" length="21.43">
        <lane id="3487_0" index="0" disallow="rail_fast" speed="36.11" length="21.43" width="4.58" acceleration="1" customShape="1" shape="-24.83,30.67 -34.79,35.47 -43.63,40.29 -44.52,40.77"/>
        <lane id="3487_1" index="1" disallow="rail_fast" speed="36.11" length="21.43" width="3.11" customShape="1" shape="-26.67,26.24 -36.69,31.62 -45.33,36.79 -46.36,37.40"/>
        <lane id="3487_2" index="2" disallow="rail_fast" speed="36.11" length="21.43" width="3.66" customShape="1" shape="-27.98,23.10 -38.21,28.59 -46.86,33.76 -47.99,34.44"/>
    </edge>
    <edge id="3495" from="5" to="6" priority="1" spreadType="center" length="15.18">
        <lane id="3495_0" index="0" disallow="rail_fast" speed="36.11" length="15.18" width="3.88" customShape="1" shape="11.33,-11.98 20.24,-16.36 25.15,-18.78"/>
        <lane id="3495_1" index="1" disallow="rail_fast" speed="36.11" length="15.18" width="3.51" customShape="1" shape="12.97,-8.66 21.86,-13.03 26.78,-15.45"/>
        <lane id="3495_2" index="2" disallow="rail_fast" speed="36.11" length="15.18" width="3.38" customShape="1" shape="14.50,-5.56 23.36,-9.92 28.31,-12.35"/>
    </edge>
    <edge id="3502" from="21" to="22" priority="1" spreadType="center" length="11.54">
        <lane id="3502_0" index="0" disallow="rail_fast" speed="36.11" length="11.54" width="3.61" customShape="1" shape="32.85,-3.10 27.80,-0.63 26.10,0.19"/>
        <lane id="3502_1" index="1" disallow="rail_fast" speed="36.11" length="11.54" width="3.63" customShape="1" shape="31.25,-6.37 26.27,-3.94 24.52,-3.08"/>
    </edge>
    <edge id="3528" from="22" to="23" priority="1" spreadType="center" length="6.58">
        <lane id="3528_0" index="0" disallow="rail_fast" speed="36.11" length="6.58" width="3.25" customShape="1" shape="19.96,5.37 18.63,7.19"/>
        <lane id="3528_1" index="1" disallow="rail_fast" speed="36.11" length="6.58" width="3.60" customShape="1" shape="18.87,3.76 17.15,4.62"/>
        <lane id="3528_2" index="2" disallow="rail_fast" speed="36.11" length="6.58" width="3.67" customShape="1" shape="16.81,0.72 15.34,1.45"/>
    </edge>
    <edge id="3534" from="23" to="24" priority="1" spreadType="center" length="6.61">
        <lane id="3534_0" index="0" disallow="rail_fast" speed="36.11" length="6.61" width="3.19" customShape="1" shape="15.59,9.18 12.97,10.45"/>
        <lane id="3534_1" index="1" disallow="rail_fast" speed="36.11" length="6.61" width="3.52" customShape="1" shape="14.12,6.12 11.52,7.41"/>
        <lane id="3534_2" index="2" disallow="rail_fast" speed="36.11" length="6.61" width="3.68" customShape="1" shape="12.54,2.85 9.95,4.15"/>
    </edge>
    <edge id="3542" from="9" to="10" priority="1" spreadType="center" length="42.05">
        <lane id="3542_0" index="0" disallow="bus rail_fast" speed="36.11" length="42.05" width="2.85" customShape="1" shape="-28.90,-4.82 -32.27,-11.74 -36.33,-20.67 -40.10,-29.39 -43.72,-38.63 -45.12,-42.04"/>
        <lane id="3542_1" index="1" disallow="rail_fast" speed="36.11" length="42.05" width="2.97" customShape="1" shape="-26.06,-6.28 -29.51,-13.25 -33.60,-22.03 -37.34,-30.72 -40.99,-39.84 -42.34,-43.18"/>
        <lane id="3542_2" index="2" disallow="rail_fast" speed="36.11" length="42.05" width="2.96" customShape="1" shape="-23.38,-7.65 -26.84,-14.76 -30.89,-23.48 -34.67,-32.17 -38.16,-40.97 -39.50,-44.34"/>
    </edge>
    <edge id="3573" from="27" to="28" priority="1" spreadType="center" length="41.48">
        <lane id="3573_0" index="0" disallow="rail_fast" speed="36.11" length="41.48" width="3.35" customShape="1" shape="-24.40,-52.01 -22.75,-48.68 -18.49,-40.11 -14.05,-31.17 -9.75,-22.71 -6.53,-16.82"/>
        <lane id="3573_1" index="1" disallow="rail_fast" speed="36.11" length="41.48" width="2.88" customShape="1" shape="-27.26,-50.60 -25.51,-47.11 -21.32,-38.74 -16.78,-29.67 -12.56,-21.24 -9.58,-15.21"/>
        <lane id="3573_2" index="2" disallow="rail_fast" speed="36.11" length="41.48" width="3.08" customShape="1" shape="-29.98,-49.26 -28.20,-45.71 -24.01,-37.34 -19.47,-28.27 -15.25,-19.85 -12.31,-13.77"/>
        <lane id="3573_3" index="3" disallow="rail_fast" speed="36.11" length="41.48" width="2.82" customShape="1" shape="-32.67,-47.94 -30.87,-44.35 -26.68,-35.98 -22.14,-26.91 -17.97,-18.44 -15.01,-12.36"/>
        <lane id="3573_4" index="4" disallow="rail_fast" speed="36.11" length="41.48" width="3.05" customShape="1" shape="-35.38,-46.61 -33.58,-42.93 -29.38,-34.55 -24.84,-25.49 -20.67,-17.01 -17.69,-10.94"/>
    </edge>
    <edge id="3600" from="14" to="9" priority="1" spreadType="center" length="24.20">
        <lane id="3600_0" index="0" disallow="bus truck rail_fast" speed="36.11" length="24.20" width="3.23" customShape="1" shape="-22.81,8.19 -22.89,8.01"/>
    </edge>
    <edge id="3602" from="24" to="15" priority="1" spreadType="center" length="16.41">
        <lane id="3602_0" index="0" disallow="bus truck rail_fast" speed="36.11" length="16.41" width="2.93" customShape="1" shape="9.93,12.46 9.38,13.05"/>
    </edge>
    <edge id="3604" from="4" to="11" priority="1" spreadType="center" length="15.84">
        <lane id="3604_0" index="0" disallow="bus truck rail_fast" speed="36.11" length="15.84" width="3.84" customShape="1" shape="-13.57,34.70 -14.57,33.47 -15.96,32.07 -17.84,30.84 -19.54,30.25 -21.34,30.06 -23.26,30.28 -32.69,33.34"/>
    </edge>
    <edge id="3610" from="4" to="7" priority="1" spreadType="center" length="13.55">
        <lane id="3610_0" index="0" disallow="rail_fast" speed="36.11" length="13.55" width="2.87" customShape="1" shape="-10.38,32.58 -14.69,23.88"/>