<!-- generated on 2020-12-18 16:52:49.667770 by ipykernel_launcher.py v1_2_0+5214-53edc58fcd
-->
<tlLogics/>
