<!-- generated on 2020-12-18 16:52:49.276831 by ipykernel_launcher.py v1_2_0+5214-53edc58fcd
-->
<edges>
	<edge from="1" function="normal" id="1450" length="87.00195232586074" numLanes="1" priority="1" speed="36.11111111111111" spreadType="center" to="2">
		<lane allow="moped bicycle pedestrian custom1 trailer evehicle rail_urban ship private vip custom2 authority delivery rail_electric taxi tram army hov coach motorcycle passenger rail emergency" index="0" length="87.00195232586074" shape="69.21255,-77.37559999999999 60.191500000000005,-43.8626 51.92115,-14.3228 48.39795,-2.7798499999999997 45.2479,6.23745" speed="36.11111111111111" width="2.4990605054700055"/>
	</edge>
	<edge from="3" function="normal" id="1451" length="86.75479689758652" numLanes="1" priority="1" speed="36.11111111111111" spreadType="center" to="4">
		<lane allow="moped bicycle pedestrian custom1 trailer evehicle rail_urban ship private vip custom2 authority delivery rail_electric taxi tram army hov coach motorcycle passenger rail emergency" index="0" length="86.75479689758652" shape="42.905649999999994,5.36495 46.031800000000004,-3.58695 49.5373,-15.078299999999999 57.79075,-44.56115 66.7959,-78.01255" speed="36.11111111111111" width="2.4988751729528285"/>
	</edge>
	<edge from="5" function="normal" id="1453" length="20.801958150360974" numLanes="2" priority="1" speed="36.11111111111111" spreadType="center" to="6">
		<lane allow="moped bicycle pedestrian custom1 trailer evehicle rail_urban ship private truck vip custom2 authority delivery rail_electric taxi tram army hov coach motorcycle passenger bus rail emergency" index="0" length="20.801958150360974" shape="-79.4449,-131.5242 -89.35235,-134.69025 -99.2595,-137.8569" speed="36.11111111111111" width="2.4980144515194556"/>
		<lane allow="moped bicycle pedestrian custom1 trailer evehicle rail_urban ship private truck vip custom2 authority delivery rail_electric taxi tram army hov coach motorcycle passenger bus rail emergency" index="1" length="20.801958150360974" shape="-78.6661,-133.89895 -88.59125,-137.0716 -98.49950000000001,-140.23795" speed="36.11111111111111" width="2.500067833079747"/>
	</edge>
	<edge from="7" function="normal" id="1454" length="0.2577029845738409" numLanes="1" priority="1" speed="36.11111111111111" spreadType="center" to="8">
		<lane allow="moped bicycle pedestrian custom1 trailer evehicle rail_urban ship private vip custom2 authority delivery rail_electric taxi tram army hov coach motorcycle passenger rail emergency" index="0" length="0.2577029845738409" shape="-46.3979,-286.5271 -46.2706,-286.5469 -46.143249999999995,-286.56665" speed="36.11111111111111" width="2.4979994595675943"/>
	</edge>
	<edge from="9" function="normal" id="1456" length="78.50211972462816" numLanes="2" priority="1" speed="36.11111111111111" spreadType="center" to="10">
		<lane allow="moped bicycle pedestrian custom1 trailer evehicle rail_urban ship private truck vip custom2 authority delivery rail_electric taxi tram army hov coach motorcycle passenger bus rail emergency" index="0" length="78.50211972462816" shape="-113.63149999999999,-143.39665 -149.34125,-159.7182 -185.04514999999998,-176.03725" speed="36.11111111111111" width="2.4999712358345407"/>
		<lane allow="moped bicycle pedestrian custom1 trailer evehicle rail_urban ship private truck vip custom2 authority delivery rail_electric taxi tram army hov coach motorcycle passenger bus rail emergency" index="1" length="78.50211972462816" shape="-112.60825,-145.6773 -148.302,-161.99195 -184.0059,-178.311" speed="36.11111111111111" width="2.4990921011439333"/>
	</edge>
	<edge from="11" function="normal" id="1457" length="15.67758358437229" numLanes="1" priority="1" speed="36.11111111111111" spreadType="center" to="12">
		<lane allow="moped bicycle pedestrian custom1 trailer evehicle rail_urban ship private truck vip custom2 authority delivery rail_electric taxi tram army hov coach motorcycle passenger bus rail emergency" index="0" length="15.67758358437229" shape="-2.4387,-18.935450000000003 0.17765000000000009,-26.344549999999998 2.7824,-33.7181" speed="36.11111111111111" width="2.499560211317183"/>
	</edge>
	<edge from="13" function="normal" id="1458" length="15.665873954733566" numLanes="1" priority="1" speed="36.11111111111111" spreadType="center" to="14">
		<lane allow="moped bicycle pedestrian custom1 trailer evehicle rail_urban ship private truck vip custom2 authority delivery rail_electric taxi tram army hov coach motorcycle passenger bus rail emergency" index="0" length="15.665873954733566" shape="5.1397,-32.886849999999995 2.53435,-25.5104 -0.07794999999999996,-18.1154" speed="36.11111111111111" width="2.4991823963048394"/>
	</edge>
	<edge from="15" function="normal" id="1459" length="107.74035844289864" numLanes="1" priority="1" speed="36.11111111111111" spreadType="center" to="16">
		<lane allow="moped bicycle pedestrian custom1 trailer evehicle rail_urban ship private vip custom2 authority delivery rail_electric taxi tram army hov coach motorcycle passenger rail emergency" index="0" length="107.74035844289864" shape="36.52135,47.0203 39.8262,48.24425 138.0869,82.96945" speed="36.11111111111111" width="2.497820019537039"/>
	</edge>
	<edge from="17" function="normal" id="1461" length="56.348020519999906" numLanes="2" priority="1" speed="36.11111111111111" spreadType="center" to="18">
		<lane allow="moped bicycle pedestrian custom1 trailer evehicle rail_urban ship private truck vip custom2 authority delivery rail_electric taxi tram army hov coach motorcycle passenger bus rail emergency" index="0" length="56.348020519999906" shape="-11.64,-109.85825 -38.4821,-118.4339 -65.3151,-127.0071" speed="36.11111111111111" width="2.4980413207150822"/>
		<lane allow="moped bicycle pedestrian custom1 trailer evehicle rail_urban ship private truck vip custom2 authority delivery rail_electric taxi tram army hov coach motorcycle passenger bus rail emergency" index="1" length="56.348020519999906" shape="-10.87975,-112.23984999999999 -37.721149999999994,-120.81530000000001 -64.57225,-129.39335" speed="36.11111111111111" width="2.5000069539903276"/>
	</edge>
	<edge from="19" function="normal" id="1463" length="68.03465411021438" numLanes="2" priority="1" speed="36.11111111111111" spreadType="center" to="20">
		<lane allow="moped bicycle pedestrian custom1 trailer evehicle rail_urban ship private truck vip custom2 authority delivery rail_electric taxi tram army hov coach motorcycle passenger bus rail emergency" index="0" length="68.03465411021438" shape="62.96815,-86.12235000000001 30.5563,-96.43090000000001 -1.8661500000000002,-106.74340000000001" speed="36.11111111111111" width="2.4974253342192227"/>
		<lane allow="moped bicycle pedestrian custom1 trailer evehicle rail_urban ship private truck vip custom2 authority delivery rail_electric taxi tram army hov coach motorcycle passenger bus rail emergency" index="1" length="68.03465411021438" shape="63.743050000000004,-88.49815000000001 31.31405,-98.8133 -1.10805,-109.1257" speed="36.11111111111111" width="2.499987809970272"/>
	</edge>
	<edge from="21" function="normal" id="1464" length="358.2248313301135" numLanes="1" priority="1" speed="36.11111111111111" spreadType="center" to="22">
		<lane allow="moped bicycle pedestrian custom1 trailer evehicle rail_urban ship private truck vip custom2 authority delivery rail_electric taxi tram army hov coach motorcycle passenger bus rail emergency" index="0" length="358.2248313301135" shape="-32.351749999999996,-286.5034 144.72315,-259.56375 321.798,-232.62405" speed="36.11111111111111" width="2.497825960710672"/>
	</edge>
	<edge from="23" function="normal" id="1465" length="38.37334808308751" numLanes="1" priority="1" speed="36.11111111111111" spreadType="center" to="24">
		<lane allow="moped bicycle pedestrian custom1 trailer evehicle rail_urban ship private truck vip custom2 authority delivery rail_electric taxi tram army hov coach motorcycle passenger bus rail emergency" index="0" length="38.37334808308751" shape="-59.51575,10.08835 -41.6623,17.11555 -23.808799999999998,24.1428" speed="36.11111111111111" width="2.4983572923022836"/>
	</edge>
	<edge from="25" function="normal" id="1466" length="26.354871689700133" numLanes="1" priority="1" speed="36.11111111111111" spreadType="center" to="26">
		<lane allow="moped bicycle pedestrian custom1 trailer evehicle rail_urban ship private truck vip custom2 authority delivery rail_electric taxi tram army hov coach motorcycle passenger bus rail emergency" index="0" length="26.354871689700133" shape="-16.64985,19.9711 -12.08135,7.6005 -7.518599999999999,-4.75135" speed="36.11111111111111" width="2.4994355462783986"/>
	</edge>
	<edge from="27" function="normal" id="1467" length="26.358205577000177" numLanes="1" priority="1" speed="36.11111111111111" spreadType="center" to="28">
		<lane allow="moped bicycle pedestrian custom1 trailer evehicle rail_urban ship private truck vip custom2 authority delivery rail_electric taxi tram army hov coach motorcycle passenger bus rail emergency" index="0" length="26.358205577000177" shape="-5.1735,-3.8875 -9.7362,8.4667 -14.306249999999999,20.83795" speed="36.11111111111111" width="2.499414619465926"/>
	</edge>
	<edge from="29" function="normal" id="1468" length="32.67611186283967" numLanes="1" priority="1" speed="36.11111111111111" spreadType="center" to="30">
		<lane allow="moped bicycle pedestrian custom1 trailer evehicle rail_urban ship private truck vip custom2 authority delivery rail_electric taxi tram army hov coach motorcycle passenger bus rail emergency" index="0" length="32.67611186283967" shape="-11.8615,28.7489 3.42515,34.51515 18.71185,40.281400000000005" speed="36.11111111111111" width="2.4980255403017786"/>
	</edge>
	<edge from="31" function="normal" id="1470" length="82.82905706277008" numLanes="2" priority="1" speed="36.11111111111111" spreadType="center" to="32">
		<lane allow="moped bicycle pedestrian custom1 trailer evehicle rail_urban ship private truck vip custom2 authority delivery rail_electric taxi tram army hov coach motorcycle passenger bus rail emergency" index="0" length="82.82905706277008" shape="156.07215,-57.59335 116.4601,-69.69524999999999 76.85759999999999,-81.79475" speed="36.11111111111111" width="2.4979473273069708"/>
		<lane allow="moped bicycle pedestrian custom1 trailer evehicle rail_urban ship private truck vip custom2 authority delivery rail_electric taxi tram army hov coach motorcycle passenger bus rail emergency" index="1" length="82.82905706277008" shape="156.80259999999998,-59.98425 117.19055,-72.08615 77.57275,-84.18945" speed="36.11111111111111" width="2.499977393897789"/>
	</edge>
	<edge from="33" function="normal" id="1472" length="145.8645780750578" numLanes="2" priority="1" speed="36.11111111111111" spreadType="center" to="34">
		<lane allow="moped bicycle pedestrian custom1 trailer evehicle rail_urban ship private vip custom2 authority delivery rail_electric taxi tram army hov coach motorcycle passenger rail emergency" index="0" length="145.8645780750578" shape="-41.062349999999995,-280.88585 -44.29445,-273.51165000000003 -101.81415000000001,-148.1764" speed="36.11111111111111" width="2.5000565793597516"/>
		<lane allow="moped bicycle pedestrian custom1 trailer evehicle rail_urban ship private vip custom2 authority delivery rail_electric taxi tram army hov coach motorcycle passenger rail emergency" index="1" length="145.8645780750578" shape="-43.358850000000004,-281.87355 -46.5775,-274.53015 -104.07294999999999,-149.24645" speed="36.11111111111111" width="2.4986865549724198"/>
	</edge>
	<edge from="35" function="normal" id="1473" length="44.507000532040905" numLanes="1" priority="1" speed="36.11111111111111" spreadType="center" to="36">
		<lane allow="moped bicycle pedestrian custom1 trailer evehicle rail_urban ship private truck vip custom2 authority delivery rail_electric taxi tram army hov coach motorcycle passenger bus rail emergency" index="0" length="44.507000532040905" shape="-103.40155,-37.78295 -82.87495000000001,-29.22685 -62.3208,-20.658549999999998" speed="36.11111111111111" width="2.4983787723241684"/>
	</edge>
	<edge from="37" function="normal" id="1474" length="44.530304346812045" numLanes="1" priority="1" speed="36.11111111111111" spreadType="center" to="38">
		<lane allow="moped bicycle pedestrian custom1 trailer evehicle rail_urban ship private truck vip custom2 authority delivery rail_electric taxi tram army hov coach motorcycle passenger bus rail emergency" index="0" length="44.530304346812045" shape="-63.287400000000005,-18.3539 -83.8369,-26.9193 -104.38974999999999,-35.487049999999996" speed="36.11111111111111" width="2.4994889277610275"/>
	</edge>
	<edge from="39" function="normal" id="1475" length="151.18985267905185" numLanes="1" priority="1" speed="36.11111111111111" spreadType="center" to="40">
		<lane allow="moped bicycle pedestrian custom1 trailer evehicle rail_urban ship private vip custom2 authority delivery rail_electric taxi tram army hov coach motorcycle passenger rail emergency" index="0" length="151.18985267905185" shape="-17.0327,119.94524999999999 -88.98125,88.90715 -100.92535,83.6268 -120.47605,74.44745 -154.8499,57.842650000000006" speed="36.11111111111111" width="2.4997054806516696"/>
	</edge>
	<edge from="41" function="normal" id="1476" length="20.60489584015109" numLanes="1" priority="1" speed="36.11111111111111" spreadType="center" to="42">
		<lane allow="moped bicycle pedestrian custom1 trailer evehicle rail_urban ship private truck vip custom2 authority delivery rail_electric taxi tram army hov coach motorcycle passenger bus rail emergency" index="0" length="20.60489584015109" shape="40.424949999999995,19.9831 37.15145,29.764699999999998 33.8845,39.5224" speed="36.11111111111111" width="2.4991987516002"/>
	</edge>
	<edge from="43" function="normal" id="1477" length="20.59585137469827" numLanes="1" priority="1" speed="36.11111111111111" spreadType="center" to="44">
		<lane allow="moped bicycle pedestrian custom1 trailer evehicle rail_urban ship private truck vip custom2 authority delivery rail_electric taxi tram army hov coach motorcycle passenger bus rail emergency" index="0" length="20.59585137469827" shape="31.511699999999998,38.738299999999995 34.78075,28.9711 38.04905,19.2075" speed="36.11111111111111" width="2.498592573830316"/>
	</edge>
	<edge from="45" function="normal" id="1478" length="2.2836330894384003" numLanes="1" priority="1" speed="36.11111111111111" spreadType="center" to="46">
		<lane allow="moped bicycle pedestrian custom1 trailer evehicle rail_urban ship private truck vip custom2 authority delivery rail_electric taxi tram army hov coach motorcycle passenger bus rail emergency" index="0" length="2.2836330894384003" shape="-108.96119999999999,-46.92275 -108.5078,-47.9563 -108.04310000000001,-49.0137" speed="36.11111111111111" width="2.497691119814461"/>
	</edge>
	<edge from="47" function="normal" id="1479" length="2.257486041086915" numLanes="1" priority="1" speed="36.11111111111111" spreadType="center" to="48">
		<lane allow="moped bicycle pedestrian custom1 trailer evehicle rail_urban ship private truck vip custom2 authority delivery rail_electric taxi tram army hov coach motorcycle passenger bus rail emergency" index="0" length="2.257486041086915" shape="-105.7643,-47.987 -106.21835,-46.9521 -106.67224999999999,-45.92015" speed="36.11111111111111" width="2.498894043371984"/>
	</edge>
	<edge from="49" function="normal" id="1480" length="41.06099647277753" numLanes="1" priority="1" speed="36.11111111111111" spreadType="center" to="50">
		<lane allow="moped bicycle pedestrian custom1 trailer evehicle rail_urban ship private truck vip custom2 authority delivery rail_electric taxi tram army hov coach motorcycle passenger bus rail emergency" index="0" length="41.06099647277753" shape="-154.07385,-61.149 -135.47944999999999,-52.4447 -116.88575,-43.74065" speed="36.11111111111111" width="2.499122682062649"/>
	</edge>
	<edge from="51" function="normal" id="1481" length="41.08658028675729" numLanes="1" priority="1" speed="36.11111111111111" spreadType="center" to="52">
		<lane allow="moped bicycle pedestrian custom1 trailer evehicle rail_urban ship private truck vip custom2 authority delivery rail_electric taxi tram army hov coach motorcycle passenger bus rail emergency" index="0" length="41.08658028675729" shape="-117.92224999999999,-41.4662 -136.53935,-50.1805 -155.1338,-58.8848" speed="36.11111111111111" width="2.499997929999145"/>
	</edge>
	<edge from="53" function="normal" id="1482" length="0.25502223678293956" numLanes="1" priority="1" speed="36.11111111111111" spreadType="center" to="54">
		<lane allow="moped bicycle pedestrian custom1 trailer evehicle rail_urban ship private vip custom2 authority delivery rail_electric taxi tram army hov coach motorcycle passenger rail emergency" index="0" length="0.25502223678293956" shape="27.68495,43.67045 27.80415,43.7156 27.92345,43.76075" speed="36.11111111111111" width="2.4712061872696918"/>
	</edge>
	<edge from="55" function="normal" id="1483" length="3.8088023598367884" numLanes="1" priority="1" speed="36.11111111111111" spreadType="center" to="56">
		<lane allow="moped bicycle pedestrian custom1 trailer evehicle rail_urban ship private truck vip custom2 authority delivery rail_electric taxi tram army hov coach motorcycle passenger bus rail emergency" index="0" length="3.8088023598367884" shape="-102.18905,-62.3551 -101.42865,-64.0869 -100.65725,-65.8423" speed="36.11111111111111" width="2.499231083753562"/>
	</edge>
	<edge from="57" function="normal" id="1484" length="3.7637359118067204" numLanes="1" priority="1" speed="36.11111111111111" spreadType="center" to="58">
		<lane allow="moped bicycle pedestrian custom1 trailer evehicle rail_urban ship private truck vip custom2 authority delivery rail_electric taxi tram army hov coach motorcycle passenger bus rail emergency" index="0" length="3.7637359118067204" shape="-98.37805,-64.81625 -99.1396,-63.08185 -99.8917,-61.3703" speed="36.11111111111111" width="2.4991892805467915"/>
	</edge>
	<edge from="59" function="normal" id="1485" length="12.17686608610299" numLanes="1" priority="1" speed="36.11111111111111" spreadType="center" to="60">
		<lane allow="moped bicycle pedestrian custom1 trailer evehicle rail_urban ship private truck vip custom2 authority delivery rail_electric taxi tram army hov coach motorcycle passenger bus rail emergency" index="0" length="12.17686608610299" shape="-63.9283,1.0155500000000002 -61.82915,-4.7136 -59.7378,-10.417549999999999" speed="36.11111111111111" width="2.50002108991104"/>
	</edge>
	<edge from="61" function="normal" id="1486" length="12.197641726978517" numLanes="1" priority="1" speed="36.11111111111111" spreadType="center" to="62">
		<lane allow="moped bicycle pedestrian custom1 trailer evehicle rail_urban ship private truck vip custom2 authority delivery rail_electric taxi tram army hov coach motorcycle passenger bus rail emergency" index="0" length="12.197641726978517" shape="-57.38275,-9.58025 -59.48185,-3.8533 -61.5811,1.8721" speed="36.11111111111111" width="2.4991457780609725"/>
	</edge>
	<edge from="63" function="normal" id="1487" length="12.108272356297778" numLanes="1" priority="1" speed="36.11111111111111" spreadType="center" to="64">
		<lane allow="moped bicycle pedestrian custom1 trailer evehicle rail_urban ship private truck vip custom2 authority delivery rail_electric taxi tram army hov coach motorcycle passenger bus rail emergency" index="0" length="12.108272356297778" shape="-94.45920000000001,-79.38125 -91.8604,-84.85225 -89.264,-90.31835000000001" speed="36.11111111111111" width="2.498054605087735"/>
	</edge>
	<edge from="65" function="normal" id="1488" length="12.064378844555026" numLanes="1" priority="1" speed="36.11111111111111" spreadType="center" to="66">
		<lane allow="moped bicycle pedestrian custom1 trailer evehicle rail_urban ship private truck vip custom2 authority delivery rail_electric taxi tram army hov coach motorcycle passenger bus rail emergency" index="0" length="12.064378844555026" shape="-87.0141,-89.2307 -89.60220000000001,-83.7796 -92.19005,-78.33305" speed="36.11111111111111" width="2.499966179771243"/>
	</edge>
	<edge from="67" function="normal" id="1489" length="43.3851447080591" numLanes="1" priority="1" speed="36.11111111111111" spreadType="center" to="68">
		<lane allow="moped bicycle pedestrian custom1 trailer evehicle rail_urban ship private truck vip custom2 authority delivery rail_electric taxi tram army hov coach motorcycle passenger bus rail emergency" index="0" length="43.3851447080591" shape="-96.62265,-53.330299999999994 -76.4186,-45.4011 -56.237,-37.47880000000001" speed="36.11111111111111" width="2.49981670528061"/>
	</edge>
	<edge from="69" function="normal" id="1490" length="43.401103648740175" numLanes="1" priority="1" speed="36.11111111111111" spreadType="center" to="70">
		<lane allow="moped bicycle pedestrian custom1 trailer evehicle rail_urban ship private truck vip custom2 authority delivery rail_electric taxi tram army hov coach motorcycle passenger bus rail emergency" index="0" length="43.401103648740175" shape="-57.1372,-35.1473 -77.33205,-43.073949999999996 -97.5376,-51.0049" speed="36.11111111111111" width="2.497780198496254"/>
	</edge>
	<edge from="71" function="normal" id="1491" length="42.03531558660373" numLanes="1" priority="1" speed="36.11111111111111" spreadType="center" to="72">
		<lane allow="moped bicycle pedestrian custom1 trailer evehicle rail_urban ship private truck vip custom2 authority delivery rail_electric taxi tram army hov coach motorcycle passenger bus rail emergency" index="0" length="42.03531558660373" shape="-88.9602,-70.30930000000001 -69.20885000000001,-63.1305 -49.45375,-55.94935" speed="36.11111111111111" width="2.4985362154669684"/>
	</edge>
	<edge from="73" function="normal" id="1492" length="42.028566135857474" numLanes="1" priority="1" speed="36.11111111111111" spreadType="center" to="74">
		<lane allow="moped bicycle pedestrian custom1 trailer evehicle rail_urban ship private truck vip custom2 authority delivery rail_electric taxi tram army hov coach motorcycle passenger bus rail emergency" index="0" length="42.028566135857474" shape="-50.3184,-53.6044 -70.06295,-60.7809 -89.81845,-67.9622" speed="36.11111111111111" width="2.498091801755882"/>
	</edge>
	<edge from="75" function="normal" id="1493" length="0.31451194270293614" numLanes="1" priority="1" speed="36.11111111111111" spreadType="center" to="76">
		<lane allow="moped bicycle pedestrian custom1 trailer evehicle rail_urban ship private vip custom2 authority delivery rail_electric taxi tram army hov coach motorcycle passenger rail emergency" index="0" length="0.31451194270293614" shape="-55.38745,-22.349600000000002 -55.3434,-22.47055 -55.2763,-22.6438" speed="36.11111111111111" width="2.497053874068395"/>
	</edge>
	<edge from="77" function="normal" id="1494" length="0.2981729441835578" numLanes="1" priority="1" speed="36.11111111111111" spreadType="center" to="78">
		<lane allow="moped bicycle pedestrian custom1 trailer evehicle rail_urban ship private vip custom2 authority delivery rail_electric taxi tram army hov coach motorcycle passenger rail emergency" index="0" length="0.2981729441835578" shape="-52.9488,-21.739649999999997 -52.993449999999996,-21.617449999999998 -53.05265,-21.46015" speed="36.11111111111111" width="2.4934720872710794"/>
	</edge>
	<edge from="79" function="normal" id="1495" length="74.38230027912562" numLanes="1" priority="1" speed="36.11111111111111" spreadType="center" to="80">
		<lane allow="moped bicycle pedestrian custom1 trailer evehicle rail_urban ship private truck vip custom2 authority delivery rail_electric taxi tram army hov coach motorcycle passenger bus rail emergency" index="0" length="74.38230027912562" shape="23.3953,49.3427 7.9689,83.18355 -7.45945,117.02365" speed="36.11111111111111" width="2.498841859742229"/>
	</edge>
	<edge from="81" function="normal" id="1496" length="74.3643081933397" numLanes="1" priority="1" speed="36.11111111111111" spreadType="center" to="82">
		<lane allow="moped bicycle pedestrian custom1 trailer evehicle rail_urban ship private truck vip custom2 authority delivery rail_electric taxi tram army hov coach motorcycle passenger bus rail emergency" index="0" length="74.3643081933397" shape="-9.7286,115.97915 5.694100000000001,82.1465 21.11875,48.3146" speed="36.11111111111111" width="2.500016807943501"/>
	</edge>
	<edge from="83" function="normal" id="1497" length="90.49603814964935" numLanes="1" priority="1" speed="36.11111111111111" spreadType="center" to="84">
		<lane allow="moped bicycle pedestrian custom1 trailer evehicle rail_urban ship private truck vip custom2 authority delivery rail_electric taxi tram army hov coach motorcycle passenger bus rail emergency" index="0" length="90.49603814964935" shape="-77.76255,-94.57249999999999 -28.99345,-78.81905 -18.97005,-75.5063 8.1764,-66.22555" speed="36.11111111111111" width="2.499518603651515"/>
	</edge>
	<edge from="85" function="normal" id="1498" length="90.41862347983158" numLanes="1" priority="1" speed="36.11111111111111" spreadType="center" to="86">
		<lane allow="moped bicycle pedestrian custom1 trailer evehicle rail_urban ship private truck vip custom2 authority delivery rail_electric taxi tram army hov coach motorcycle passenger bus rail emergency" index="0" length="90.41862347983158" shape="7.33125,-63.8734 -19.7691,-73.1374 -29.779600000000002,-76.44585000000001 -78.53435,-92.19565" speed="36.11111111111111" width="2.4992011863793553"/>
	</edge>
	<edge from="87" function="normal" id="1499" length="22.029012917105923" numLanes="1" priority="1" speed="36.11111111111111" spreadType="center" to="88">
		<lane allow="moped bicycle pedestrian custom1 trailer evehicle rail_urban ship private truck vip custom2 authority delivery rail_electric taxi tram army hov coach motorcycle passenger bus rail emergency" index="0" length="22.029012917105923" shape="-83.7929,-103.2822 -79.80955,-113.5558 -75.8288,-123.8212" speed="36.11111111111111" width="2.498279864226593"/>
	</edge>
	<edge from="89" function="normal" id="1500" length="22.00535857387308" numLanes="1" priority="1" speed="36.11111111111111" spreadType="center" to="90">
		<lane allow="moped bicycle pedestrian custom1 trailer evehicle rail_urban ship private truck vip custom2 authority delivery rail_electric taxi tram army hov coach motorcycle passenger bus rail emergency" index="0" length="22.00535857387308" shape="-73.4959,-122.926 -77.4781,-112.65355 -81.45105000000001,-102.4089" speed="36.11111111111111" width="2.4998968958739023"/>
	</edge>
	<edge from="91" function="normal" id="1501" length="36.542653280201634" numLanes="1" priority="1" speed="36.11111111111111" spreadType="center" to="92">
		<lane allow="moped bicycle pedestrian custom1 trailer evehicle rail_urban ship private truck vip custom2 authority delivery rail_electric taxi tram army hov coach motorcycle passenger bus rail emergency" index="0" length="36.542653280201634" shape="-35.9822,-51.895399999999995 -18.1943,-47.66445 -0.4315,-43.43885" speed="36.11111111111111" width="2.498013468738709"/>
	</edge>
	<edge from="93" function="normal" id="1502" length="36.51698285315625" numLanes="1" priority="1" speed="36.11111111111111" spreadType="center" to="94">
		<lane allow="moped bicycle pedestrian custom1 trailer evehicle rail_urban ship private truck vip custom2 authority delivery rail_electric taxi tram army hov coach motorcycle passenger bus rail emergency" index="0" length="36.51698285315625" shape="-1.01355,-41.00855 -18.7729,-45.23235 -36.53935,-49.45885" speed="36.11111111111111" width="2.499049935475481"/>
	</edge>
	<edge from="95" function="normal" id="1503" length="135.04658610944136" numLanes="1" priority="1" speed="36.11111111111111" spreadType="center" to="96">
		<lane allow="moped bicycle pedestrian custom1 trailer evehicle rail_urban ship private truck vip custom2 authority delivery rail_electric taxi tram army hov coach motorcycle passenger bus rail emergency" index="0" length="135.04658610944136" shape="124.0615,165.5581 59.725750000000005,145.0567 -4.61,124.55535" speed="36.11111111111111" width="2.4987987614051677"/>
	</edge>
	<edge from="97" function="normal" id="1504" length="35.93827058000994" numLanes="1" priority="1" speed="36.11111111111111" spreadType="center" to="98">
		<lane allow="moped bicycle pedestrian custom1 trailer evehicle rail_urban ship private vip custom2 authority delivery rail_electric taxi tram army hov coach motorcycle passenger rail emergency" index="0" length="35.93827058000994" shape="-44.916,-25.52715 -37.69755,-23.16825 -21.78105,-18.10285 -10.599499999999999,-14.8644" speed="36.11111111111111" width="2.498184052466912"/>
	</edge>
	<edge from="99" function="normal" id="1505" length="36.03376126217963" numLanes="1" priority="1" speed="36.11111111111111" spreadType="center" to="100">
		<lane allow="moped bicycle pedestrian custom1 trailer evehicle rail_urban ship private vip custom2 authority delivery rail_electric taxi tram army hov coach motorcycle passenger rail emergency" index="0" length="36.03376126217963" shape="-11.281600000000001,-12.4602 -22.494799999999998,-15.706949999999999 -38.45725,-20.786450000000002 -45.6896,-23.150199999999998" speed="36.11111111111111" width="2.4993031108691035"/>
	</edge>
	<edge from="101" function="normal" id="1506" length="0.14604648286555538" numLanes="1" priority="1" speed="36.11111111111111" spreadType="center" to="102">
		<lane allow="moped bicycle pedestrian custom1 trailer evehicle rail_urban ship private vip custom2 authority delivery rail_electric taxi tram army hov coach motorcycle passenger rail emergency" index="0" length="0.14604648286555538" shape="-52.3197,-30.7145 -52.2755,-30.8324 -52.255700000000004,-30.82875" speed="36.11111111111111" width="2.4784865644178935"/>
	</edge>