<!-- generated on Tue Feb  9 22:04:27 2021 by Eclipse SUMO netconvert Version 1.8.0
<configuration xmlns:xsi="http://www.w3.org/2001/XMLSchema-instance" xsi:noNamespaceSchemaLocation="http://sumo.dlr.de/xsd/netconvertConfiguration.xsd">

    <input>
        <node-files value="./converted_scenarios/scenario-factory/DEU_Guetersloh-14_3_I-1-1/DEU_Guetersloh-14_3_I-1-1.nod.xml"/>
        <edge-files value="./converted_scenarios/scenario-factory/DEU_Guetersloh-14_3_I-1-1/DEU_Guetersloh-14_3_I-1-1.edg.xml"/>
        <connection-files value="./converted_scenarios/scenario-factory/DEU_Guetersloh-14_3_I-1-1/DEU_Guetersloh-14_3_I-1-1.con.xml"/>
        <tllogic-files value="./converted_scenarios/scenario-factory/DEU_Guetersloh-14_3_I-1-1/DEU_Guetersloh-14_3_I-1-1.tll.xml"/>
        <type-files value="/home/zen/commonroad-interactive-benchmarks/install/commonroad-map-tool/crmapconverter/sumo_map/templates/DEU.typ.xml"/>
    </input>

    <output>
        <output-file value="./converted_scenarios/scenario-factory/DEU_Guetersloh-14_3_I-1-1/DEU_Guetersloh-14_3_I-1-1.net.xml"/>
    </output>

    <processing>
        <geometry.remove.keep-edges.explicit value="true"/>
        <geometry.avoid-overlap value="true"/>
        <offset.disable-normalization value="true"/>
    </processing>

    <junctions>
        <no-turnarounds value="true"/>
        <junctions.internal-link-detail value="20"/>
    </junctions>

    <report>
        <aggregate-warnings value="5"/>
    </report>

    <random_number>
        <seed value="1234"/>
    </random_number>

</configuration>
--><net xmlns:xsi="http://www.w3.org/2001/XMLSchema-instance" version="1.6" junctionCornerDetail="5" junctionLinkDetail="20" limitTurnSpeed="5.50" xsi:noNamespaceSchemaLocation="http://sumo.dlr.de/xsd/net_file.xsd">

    <location netOffset="0.00,0.00" convBoundary="-546.36,-23.36,-416.42,99.22" origBoundary="-546.36,-23.36,-416.42,99.22" projParameter="!"/>

    <type id="highway.bridleway" priority="1" speed="2.78" allow="pedestrian" oneway="1" width="2.00"/>
    <type id="highway.bus_guideway" priority="1" speed="27.78" allow="bus" oneway="1"/>
    <type id="highway.cycleway" priority="1" speed="8.33" allow="bicycle" oneway="0" width="1.00"/>
    <type id="highway.footway" priority="1" speed="2.78" allow="pedestrian" oneway="1" width="2.00"/>
    <type id="highway.ford" priority="1" speed="2.78" allow="army" oneway="0"/>
    <type id="highway.living_street" priority="2" speed="2.78" disallow="tram rail_urban rail rail_electric rail_fast ship" oneway="0"/>
    <type id="highway.motorway" priority="14" speed="39.44" allow="private emergency authority army vip passenger hov taxi bus coach delivery truck trailer motorcycle evehicle custom1 custom2" oneway="1"/>
    <type id="highway.motorway_link" priority="9" speed="22.22" allow="private emergency authority army vip passenger hov taxi bus coach delivery truck trailer motorcycle evehicle custom1 custom2" oneway="1"/>
    <type id="highway.path" priority="1" speed="2.78" allow="pedestrian bicycle" oneway="0" width="2.00"/>
    <type id="highway.pedestrian" priority="1" speed="2.78" allow="pedestrian" oneway="1" width="2.00"/>
    <type id="highway.primary" priority="12" speed="27.78" disallow="pedestrian tram rail_urban rail rail_electric rail_fast ship" oneway="0"/>
    <type id="highway.primary_link" priority="7" speed="22.22" disallow="pedestrian tram rail_urban rail rail_electric rail_fast ship" oneway="0"/>
    <type id="highway.raceway" priority="15" speed="83.33" allow="vip" oneway="0"/>
    <type id="highway.residential" priority="3" speed="13.89" disallow="pedestrian tram rail_urban rail rail_electric rail_fast ship" oneway="0"/>
    <type id="highway.secondary" priority="11" speed="27.78" disallow="pedestrian tram rail_urban rail rail_electric rail_fast ship" oneway="0"/>
    <type id="highway.secondary_link" priority="6" speed="22.22" disallow="pedestrian tram rail_urban rail rail_electric rail_fast ship" oneway="0"/>
    <type id="highway.service" priority="1" speed="5.56" allow="pedestrian delivery bicycle" oneway="0"/>
    <type id="highway.stairs" priority="1" speed="1.39" allow="pedestrian" oneway="1" width="2.00"/>
    <type id="highway.step" priority="1" speed="1.39" allow="pedestrian" oneway="1" width="2.00"/>
    <type id="highway.steps" priority="1" speed="1.39" allow="pedestrian" oneway="1" width="2.00"/>
    <type id="highway.tertiary" priority="10" speed="22.22" disallow="pedestrian tram rail_urban rail rail_electric rail_fast ship" oneway="0"/>
    <type id="highway.tertiary_link" priority="5" speed="22.22" disallow="pedestrian tram rail_urban rail rail_electric rail_fast ship" oneway="0"/>
    <type id="highway.track" priority="1" speed="5.56" allow="pedestrian motorcycle moped bicycle" oneway="0"/>
    <type id="highway.trunk" priority="13" speed="27.78" disallow="pedestrian bicycle tram rail_urban rail rail_electric rail_fast ship" oneway="0"/>
    <type id="highway.trunk_link" priority="8" speed="22.22" disallow="pedestrian bicycle tram rail_urban rail rail_electric rail_fast ship" oneway="0"/>
    <type id="highway.unclassified" priority="4" speed="13.89" disallow="pedestrian tram rail_urban rail rail_electric rail_fast ship" oneway="0"/>
    <type id="highway.unsurfaced" priority="1" speed="8.33" disallow="tram rail_urban rail rail_electric rail_fast ship" oneway="0"/>
    <type id="railway.highspeed" priority="21" speed="69.44" allow="rail_fast" oneway="1"/>
    <type id="railway.light_rail" priority="19" speed="27.78" allow="rail_urban" oneway="1"/>
    <type id="railway.preserved" priority="16" speed="27.78" allow="rail" oneway="1"/>
    <type id="railway.rail" priority="20" speed="44.44" allow="rail" oneway="1"/>
    <type id="railway.subway" priority="18" speed="27.78" allow="rail_urban" oneway="1"/>
    <type id="railway.tram" priority="17" speed="13.89" allow="tram" oneway="1"/>

    <edge id=":17_0" function="internal">
        <lane id=":17_0_0" index="0" disallow="pedestrian tram rail_urban rail rail_electric rail_fast ship" speed="11.18" length="29.44" width="3.50" shape="-481.16,41.24 -483.80,38.87 -486.18,37.13 -488.75,35.69 -490.94,34.84 -493.24,34.34 -495.01,34.24 -496.77,34.38 -498.49,34.77 -500.68,35.63 -502.71,36.82 -505.03,38.64 -506.70,40.28"/>
    </edge>
    <edge id=":17_1" function="internal">
        <lane id=":17_1_0" index="0" disallow="pedestrian tram rail_urban rail rail_electric rail_fast ship" speed="36.11" length="40.55" width="3.50" shape="-478.73,38.72 -485.53,32.32 -501.84,17.78 -507.84,12.01 -508.57,11.27"/>
    </edge>
    <edge id=":17_2" function="internal">
        <lane id=":17_2_0" index="0" disallow="pedestrian tram rail_urban rail rail_electric rail_fast ship" speed="12.31" length="35.32" width="3.50" shape="-478.73,38.72 -479.62,37.82 -482.09,34.99 -483.60,32.91 -484.93,30.68 -486.01,28.29 -486.76,25.77 -487.01,24.41 -487.13,23.07 -487.15,21.71 -487.04,20.36 -486.82,19.02 -486.49,17.71 -486.06,16.42 -484.96,14.04 -483.58,11.82 -482.00,9.78 -480.27,7.90"/>
    </edge>
    <edge id=":17_3" function="internal">
        <lane id=":17_3_0" index="0" disallow="pedestrian tram rail_urban rail rail_electric rail_fast ship" speed="11.33" length="29.73" width="3.50" shape="-477.79,10.37 -479.28,11.99 -480.63,13.73 -481.79,15.61 -482.70,17.61 -483.04,18.66 -483.30,19.73 -483.47,20.82 -483.55,21.92 -483.53,23.02 -483.42,24.11 -483.21,25.20 -482.57,27.30 -481.65,29.30 -480.52,31.19 -479.22,32.97 -477.04,35.45 -476.27,36.23"/>
    </edge>
    <edge id=":17_4" function="internal">
        <lane id=":17_4_0" index="0" disallow="pedestrian tram rail_urban rail rail_electric rail_fast ship" speed="36.11" length="41.60" width="3.50" shape="-477.79,10.37 -494.52,27.48 -506.70,40.28"/>
    </edge>
    <edge id=":17_5" function="internal">
        <lane id=":17_5_0" index="0" disallow="pedestrian tram rail_urban rail rail_electric rail_fast ship" speed="12.39" length="35.41" width="3.50" shape="-477.79,10.37 -480.69,13.03 -482.76,14.63 -484.98,16.05 -487.33,17.21 -489.80,18.07 -491.08,18.35 -492.38,18.54 -493.69,18.61 -495.00,18.57 -496.31,18.42 -497.59,18.16 -500.08,17.33 -502.43,16.16 -504.62,14.72 -506.66,13.07 -508.57,11.27"/>
    </edge>
    <edge id=":17_6" function="internal">
        <lane id=":17_6_0" index="0" disallow="pedestrian tram rail_urban rail rail_electric rail_fast ship" speed="11.39" length="29.78" width="3.50" shape="-506.07,8.82 -504.42,10.38 -502.66,11.80 -500.81,13.01 -498.85,13.98 -496.78,14.66 -495.77,14.86 -494.72,14.98 -493.67,15.00 -492.61,14.94 -491.56,14.78 -490.55,14.55 -488.47,13.83 -486.49,12.84 -484.61,11.63 -482.82,10.25 -480.27,7.90"/>
    </edge>
    <edge id=":17_7" function="internal">
        <lane id=":17_7_0" index="0" disallow="pedestrian tram rail_urban rail rail_electric rail_fast ship" speed="36.11" length="40.50" width="3.50" shape="-506.07,8.82 -505.36,9.54 -499.41,15.26 -483.12,29.78 -476.27,36.23"/>
    </edge>
    <edge id=":17_8" function="internal">
        <lane id=":17_8_0" index="0" disallow="pedestrian tram rail_urban rail rail_electric rail_fast ship" speed="12.70" length="35.67" width="3.50" shape="-506.07,8.82 -503.61,11.61 -502.14,13.68 -500.88,15.90 -499.88,18.28 -499.22,20.81 -498.94,23.42 -499.07,26.04 -499.59,28.59 -500.43,31.03 -501.53,33.32 -502.84,35.47 -504.31,37.50 -506.70,40.28"/>
    </edge>
    <edge id=":17_9" function="internal">
        <lane id=":17_9_0" index="0" disallow="pedestrian tram rail_urban rail rail_electric rail_fast ship" speed="11.73" length="30.29" width="3.50" shape="-509.28,37.92 -507.15,35.44 -505.87,33.69 -504.75,31.85 -503.80,29.90 -503.09,27.86 -502.65,25.74 -502.53,23.59 -502.75,21.44 -503.29,19.35 -504.11,17.35 -505.17,15.47 -506.43,13.70 -508.57,11.27"/>
    </edge>
    <edge id=":17_10" function="internal">
        <lane id=":17_10_0" index="0" disallow="pedestrian tram rail_urban rail rail_electric rail_fast ship" speed="36.11" length="41.75" width="3.50" shape="-509.28,37.92 -497.04,25.05 -480.27,7.90"/>
    </edge>
    <edge id=":17_11" function="internal">
        <lane id=":17_11_0" index="0" disallow="pedestrian tram rail_urban rail rail_electric rail_fast ship" speed="12.66" length="38.12" width="3.50" shape="-509.29,37.92 -506.33,35.03 -503.58,32.83 -501.12,31.24 -498.49,29.95 -496.27,29.19 -493.97,28.73 -491.63,28.60 -489.30,28.80 -487.01,29.33 -484.82,30.15 -482.22,31.51 -479.80,33.16 -477.11,35.43 -476.27,36.23"/>
    </edge>

    <edge id="66724" from="17" to="3" priority="3" type="highway.residential" spreadType="center" length="70.00" shape="-493.90,22.46 -419.10,-23.36">
        <lane id="66724_0" index="0" disallow="pedestrian tram rail_urban rail rail_electric rail_fast ship" speed="36.11" length="70.00" width="3.50" customShape="1" shape="-480.27,7.90 -475.59,3.30 -470.36,-1.47 -465.67,-5.30 -461.16,-8.55 -458.59,-10.15 -455.42,-11.72 -447.43,-14.86 -439.31,-17.67 -429.63,-20.58 -419.10,-23.36"/>
    </edge>
    <edge id="66725" from="14" to="17" priority="3" type="highway.residential" spreadType="center" length="70.03" shape="-416.42,-20.46 -492.08,25.45">
        <lane id="66725_0" index="0" disallow="pedestrian tram rail_urban rail rail_electric rail_fast ship" speed="36.11" length="70.03" width="3.50" customShape="1" shape="-416.42,-20.46 -428.02,-17.39 -437.61,-14.54 -445.64,-11.79 -453.53,-8.73 -456.56,-7.28 -459.00,-5.79 -463.41,-2.63 -468.01,1.12 -473.16,5.82 -477.81,10.40"/>
    </edge>
    <edge id="67082" from="17" to="8" priority="3" type="highway.residential" spreadType="center" length="55.43" shape="-491.75,22.67 -438.08,76.38">
        <lane id="67082_0" index="0" disallow="pedestrian tram rail_urban rail rail_electric rail_fast ship" speed="36.11" length="55.43" width="3.50" customShape="1" shape="-476.27,36.23 -469.03,43.38 -456.88,55.67 -447.83,65.30 -438.08,76.38"/>
    </edge>
    <edge id="67084" from="15" to="17" priority="3" type="highway.residential" spreadType="center" length="54.89" shape="-442.06,79.80 -495.54,26.29">
        <lane id="67084_0" index="0" disallow="pedestrian tram rail_urban rail rail_electric rail_fast ship" speed="36.11" length="54.89" width="3.50" customShape="1" shape="-443.37,80.96 -453.00,70.01 -461.95,60.49 -473.99,48.31 -481.19,41.21"/>
        <lane id="67084_1" index="1" disallow="pedestrian tram rail_urban rail rail_electric rail_fast ship" speed="36.11" length="55.14" width="3.50" customShape="1" shape="-440.74,78.66 -450.42,67.65 -459.41,58.08 -471.51,45.84 -478.73,38.72"/>
    </edge>
    <edge id="67776" from="17" to="10" priority="3" type="highway.residential" spreadType="center" length="38.25" shape="-494.16,25.21 -535.37,-16.02">
        <lane id="67776_0" index="0" disallow="pedestrian tram rail_urban rail rail_electric rail_fast ship" speed="36.11" length="38.25" width="3.50" customShape="1" shape="-508.57,11.27 -521.97,-2.38 -535.37,-16.02"/>
    </edge>
    <edge id="67777" from="13" to="17" priority="3" type="highway.residential" spreadType="center" length="38.26" shape="-532.87,-18.48 -491.68,22.74">
        <lane id="67777_0" index="0" disallow="pedestrian tram rail_urban rail rail_electric rail_fast ship" speed="36.11" length="38.26" width="3.50" customShape="1" shape="-532.87,-18.48 -519.47,-4.83 -506.07,8.82"/>
    </edge>
    <edge id="68264" from="16" to="17" priority="3" type="highway.residential" spreadType="center" length="70.00" shape="-546.36,96.76 -494.37,22.90">
        <lane id="68264_0" index="0" disallow="pedestrian tram rail_urban rail rail_electric rail_fast ship" speed="36.11" length="70.00" width="3.50" customShape="1" shape="-546.36,96.76 -534.50,74.21 -529.70,64.17 -527.47,60.20 -524.91,56.43 -520.95,51.18 -516.08,45.37 -509.25,37.89"/>
    </edge>
    <edge id="68265" from="17" to="6" priority="3" type="highway.residential" spreadType="center" length="70.00" shape="-491.50,24.91 -543.70,99.22">
        <lane id="68265_0" index="0" disallow="pedestrian tram rail_urban rail rail_electric rail_fast ship" speed="36.11" length="70.00" width="3.50" customShape="1" shape="-506.70,40.28 -513.45,47.68 -518.25,53.40 -522.13,58.55 -524.60,62.20 -526.73,66.06 -531.50,76.02 -543.70,99.22"/>
    </edge>

    <junction id="10" type="dead_end" x="-535.37" y="-16.02" incLanes="67776_0" intLanes="" shape="-536.62,-14.80 -534.12,-17.25" rightOfWay="edgePriority"/>
    <junction id="13" type="dead_end" x="-532.87" y="-18.48" incLanes="" intLanes="" shape="-534.12,-17.25 -531.63,-19.70" rightOfWay="edgePriority"/>
    <junction id="14" type="dead_end" x="-416.42" y="-20.46" incLanes="" intLanes="" shape="-416.86,-22.15 -415.97,-18.76" rightOfWay="edgePriority"/>
    <junction id="15" type="dead_end" x="-442.06" y="79.80" incLanes="" intLanes="" shape="-439.43,77.49 -444.69,82.11" rightOfWay="edgePriority"/>
    <junction id="16" type="dead_end" x="-546.36" y="96.76" incLanes="" intLanes="" shape="-544.81,97.57 -547.91,95.94" rightOfWay="edgePriority"/>
    <junction id="17" type="priority" x="-492.96" y="23.94" incLanes="67084_0 67084_1 66725_0 67777_0 68264_0" intLanes=":17_0_0 :17_1_0 :17_2_0 :17_3_0 :17_4_0 :17_5_0 :17_6_0 :17_7_0 :17_8_0 :17_9_0 :17_10_0 :17_11_0" shape="-482.42,42.46 -475.04,34.98 -478.59,30.88 -480.82,26.86 -481.74,22.93 -481.34,19.08 -479.62,15.32 -476.59,11.64 -481.50,6.66 -485.57,10.05 -489.57,12.15 -493.49,12.96 -497.34,12.47 -501.12,10.68 -504.82,7.59 -509.82,12.49 -506.76,16.30 -504.98,20.20 -504.47,24.20 -505.23,28.28 -507.27,32.47 -510.58,36.74 -505.41,41.46 -501.88,38.32 -498.22,36.50 -494.45,36.00 -490.56,36.83 -486.55,38.98">
        <request index="0" response="000000000000" foes="000100010000" cont="0"/>
        <request index="1" response="000000000000" foes="111100110000" cont="0"/>
        <request index="2" response="000011000000" foes="110011110000" cont="0"/>
        <request index="3" response="000010000000" foes="100010000000" cont="0"/>
        <request index="4" response="000110000111" foes="100110000111" cont="0"/>
        <request index="5" response="011110000110" foes="011110000110" cont="0"/>
        <request index="6" response="000000000000" foes="010000000100" cont="0"/>
        <request index="7" response="000000000000" foes="110000111100" cont="0"/>
        <request index="8" response="000000000011" foes="110000110011" cont="0"/>
        <request index="9" response="000000000010" foes="000000100010" cont="0"/>
        <request index="10" response="000111000110" foes="000111100110" cont="0"/>
        <request index="11" response="000110011110" foes="000110011110" cont="0"/>
    </junction>
    <junction id="3" type="dead_end" x="-419.10" y="-23.36" incLanes="66724_0" intLanes="" shape="-419.55,-25.05 -418.65,-21.67" rightOfWay="edgePriority"/>
    <junction id="6" type="dead_end" x="-543.70" y="99.22" incLanes="68265_0" intLanes="" shape="-542.15,100.03 -545.25,98.40" rightOfWay="edgePriority"/>
    <junction id="8" type="dead_end" x="-438.08" y="76.38" incLanes="67082_0" intLanes="" shape="-436.77,75.22 -439.40,77.53" rightOfWay="edgePriority"/>

    <connection from="66725" to="67082" fromLane="0" toLane="0" contPos="-4.00" shape="-477.79,10.37 -479.28,11.99 -480.63,13.73 -481.79,15.61 -482.70,17.61 -483.04,18.66 -483.30,19.73 -483.47,20.82 -483.55,21.92 -483.53,23.02 -483.42,24.11 -483.21,25.20 -482.57,27.30 -481.65,29.30 -480.52,31.19 -479.22,32.97 -477.04,35.45 -476.27,36.23" via=":17_3_0" dir="r" state="m"/>
    <connection from="66725" to="68265" fromLane="0" toLane="0" contPos="-4.00" shape="-477.79,10.37 -494.52,27.48 -506.70,40.28" via=":17_4_0" dir="s" state="m"/>
    <connection from="66725" to="67776" fromLane="0" toLane="0" contPos="-4.00" shape="-477.79,10.37 -480.69,13.03 -482.76,14.63 -484.98,16.05 -487.33,17.21 -489.80,18.07 -491.08,18.35 -492.38,18.54 -493.69,18.61 -495.00,18.57 -496.31,18.42 -497.59,18.16 -500.08,17.33 -502.43,16.16 -504.62,14.72 -506.66,13.07 -508.57,11.27" via=":17_5_0" dir="l" state="m"/>
    <connection from="67084" to="68265" fromLane="0" toLane="0" contPos="-4.00" shape="-481.16,41.24 -483.80,38.87 -486.18,37.13 -488.75,35.69 -490.94,34.84 -493.24,34.34 -495.01,34.24 -496.77,34.38 -498.49,34.77 -500.68,35.63 -502.71,36.82 -505.03,38.64 -506.70,40.28" via=":17_0_0" dir="r" state="M"/>
    <connection from="67084" to="67776" fromLane="1" toLane="0" contPos="-4.00" shape="-478.73,38.72 -485.53,32.32 -501.84,17.78 -507.84,12.01 -508.57,11.27" via=":17_1_0" dir="s" state="M"/>
    <connection from="67084" to="66724" fromLane="1" toLane="0" contPos="-4.00" shape="-478.73,38.72 -479.62,37.82 -482.09,34.99 -483.60,32.91 -484.93,30.68 -486.01,28.29 -486.76,25.77 -487.01,24.41 -487.13,23.07 -487.15,21.71 -487.04,20.36 -486.82,19.02 -486.49,17.71 -486.06,16.42 -484.96,14.04 -483.58,11.82 -482.00,9.78 -480.27,7.90" via=":17_2_0" dir="l" state="m"/>
    <connection from="67777" to="66724" fromLane="0" toLane="0" contPos="-4.00" shape="-506.07,8.82 -504.42,10.38 -502.66,11.80 -500.81,13.01 -498.85,13.98 -496.78,14.66 -495.77,14.86 -494.72,14.98 -493.67,15.00 -492.61,14.94 -491.56,14.78 -490.55,14.55 -488.47,13.83 -486.49,12.84 -484.61,11.63 -482.82,10.25 -480.27,7.90" via=":17_6_0" dir="r" state="M"/>
    <connection from="67777" to="67082" fromLane="0" toLane="0" contPos="-4.00" shape="-506.07,8.82 -505.36,9.54 -499.41,15.26 -483.12,29.78 -476.27,36.23" via=":17_7_0" dir="s" state="M"/>
    <connection from="67777" to="68265" fromLane="0" toLane="0" contPos="-4.00" shape="-506.07,8.82 -503.61,11.61 -502.14,13.68 -500.88,15.90 -499.88,18.28 -499.22,20.81 -498.94,23.42 -499.07,26.04 -499.59,28.59 -500.43,31.03 -501.53,33.32 -502.84,35.47 -504.31,37.50 -506.70,40.28" via=":17_8_0" dir="l" state="m"/>
    <connection from="68264" to="67776" fromLane="0" toLane="0" contPos="-4.00" shape="-509.25,37.89 -507.15,35.44 -505.87,33.69 -504.75,31.85 -503.80,29.90 -503.09,27.86 -502.65,25.74 -502.53,23.59 -502.75,21.44 -503.29,19.35 -504.11,17.35 -505.17,15.47 -506.43,13.70 -508.57,11.27" via=":17_9_0" dir="r" state="m"/>
    <connection from="68264" to="66724" fromLane="0" toLane="0" contPos="-4.00" shape="-509.25,37.89 -497.04,25.05 -480.27,7.90" via=":17_10_0" dir="s" state="m"/>
    <connection from="68264" to="67082" fromLane="0" toLane="0" contPos="-4.00" shape="-509.25,37.89 -506.33,35.03 -503.58,32.83 -501.12,31.24 -498.49,29.95 -496.27,29.19 -493.97,28.73 -491.63,28.60 -489.30,28.80 -487.01,29.33 -484.82,30.15 -482.22,31.51 -479.80,33.16 -477.11,35.43 -476.27,36.23" via=":17_11_0" dir="l" state="m"/>

    <connection from=":17_0" to="68265" fromLane="0" toLane="0" dir="r" state="M"/>
    <connection from=":17_1" to="67776" fromLane="0" toLane="0" dir="s" state="M"/>
    <connection from=":17_2" to="66724" fromLane="0" toLane="0" dir="l" state="M"/>
    <connection from=":17_3" to="67082" fromLane="0" toLane="0" dir="r" state="M"/>
    <connection from=":17_4" to="68265" fromLane="0" toLane="0" dir="s" state="M"/>
    <connection from=":17_5" to="67776" fromLane="0" toLane="0" dir="l" state="M"/>
    <connection from=":17_6" to="66724" fromLane="0" toLane="0" dir="r" state="M"/>
    <connection from=":17_7" to="67082" fromLane="0" toLane="0" dir="s" state="M"/>
    <connection from=":17_8" to="68265" fromLane="0" toLane="0" dir="l" state="M"/>
    <connection from=":17_9" to="67776" fromLane="0" toLane="0" dir="r" state="M"/>
    <connection from=":17_10" to="66724" fromLane="0" toLane="0" dir="s" state="M"/>
    <connection from=":17_11" to="67082" fromLane="0" toLane="0" dir="l" state="M"/>

</net>