<routes>
	<vehicle depart="0.1" departLane="0" departPos="17.964479901829463" departSpeed="3.2465919" id="35" type="passenger">
		<route edges=":54_7 44949"/>
	</vehicle>
	<vehicle depart="0.1" departLane="0" departPos="35.27598503574345" departSpeed="15.023881" id="310" type="passenger">
		<route edges=":54_9 45032 45029"/>
	</vehicle>
	<vehicle depart="0.1" departLane="0" departPos="30.447172086979474" departSpeed="0.0" id="311" type="passenger">
		<route edges=":55_4 44899"/>
	</vehicle>
	<vehicle depart="0.1" departLane="0" departPos="8.181796470410582" departSpeed="2.1960681" id="312" type="passenger">
		<route edges=":54_7 44949"/>
	</vehicle>
	<vehicle depart="0.1" departLane="0" departPos="19.93106134256085" departSpeed="14.359819" id="321" type="passenger">
		<route edges=":52_5 45029"/>
	</vehicle>
	<vehicle depart="0.1" departLane="0" departPos="22.951362041292157" departSpeed="0.0" id="329" type="passenger">
		<route edges=":55_4 44899"/>
	</vehicle>
	<vehicle depart="0.1" departLane="0" departPos="24.811269282852926" departSpeed="6.4750654" id="338" type="passenger">
		<route edges=":51_5 44948"/>
	</vehicle>
	<vehicle depart="0.1" departLane="0" departPos="77.14963683301232" departSpeed="2.9883298" id="339" type="passenger">
		<route edges=":52_4 45033 44949"/>
	</vehicle>
	<vehicle depart="0.1" departLane="0" departPos="57.83818594462693" departSpeed="0.92610387" id="347" type="passenger">
		<route edges=":52_2 45033 44949"/>
	</vehicle>
	<vehicle depart="0.1" departLane="0" departPos="72.54677865752637" departSpeed="0.85857531" id="341" type="motorcycle">
		<route edges=":52_0 45033 44949"/>
	</vehicle>
</routes>
