<!-- generated on Tue Feb  9 22:08:58 2021 by Eclipse SUMO netconvert Version 1.8.0
<configuration xmlns:xsi="http://www.w3.org/2001/XMLSchema-instance" xsi:noNamespaceSchemaLocation="http://sumo.dlr.de/xsd/netconvertConfiguration.xsd">

    <input>
        <node-files value="./converted_scenarios/scenario-factory/DEU_Backnang-5_1_I-1-1/DEU_Backnang-5_1_I-1-1.nod.xml"/>
        <edge-files value="./converted_scenarios/scenario-factory/DEU_Backnang-5_1_I-1-1/DEU_Backnang-5_1_I-1-1.edg.xml"/>
        <connection-files value="./converted_scenarios/scenario-factory/DEU_Backnang-5_1_I-1-1/DEU_Backnang-5_1_I-1-1.con.xml"/>
        <tllogic-files value="./converted_scenarios/scenario-factory/DEU_Backnang-5_1_I-1-1/DEU_Backnang-5_1_I-1-1.tll.xml"/>
        <type-files value="/home/zen/commonroad-interactive-benchmarks/install/commonroad-map-tool/crmapconverter/sumo_map/templates/DEU.typ.xml"/>
    </input>

    <output>
        <output-file value="./converted_scenarios/scenario-factory/DEU_Backnang-5_1_I-1-1/DEU_Backnang-5_1_I-1-1.net.xml"/>
    </output>

    <processing>
        <geometry.remove.keep-edges.explicit value="true"/>
        <geometry.avoid-overlap value="true"/>
        <offset.disable-normalization value="true"/>
    </processing>

    <junctions>
        <no-turnarounds value="true"/>
        <junctions.internal-link-detail value="20"/>
    </junctions>

    <report>
        <aggregate-warnings value="5"/>
    </report>

    <random_number>
        <seed value="1234"/>
    </random_number>

</configuration>
--><net xmlns:xsi="http://www.w3.org/2001/XMLSchema-instance" version="1.6" junctionCornerDetail="5" junctionLinkDetail="20" limitTurnSpeed="5.50" xsi:noNamespaceSchemaLocation="http://sumo.dlr.de/xsd/net_file.xsd">

    <location netOffset="0.00,0.00" convBoundary="46.69,-0.91,252.31,254.56" origBoundary="28.05,-0.91,252.31,254.56" projParameter="!"/>

    <type id="highway.bridleway" priority="1" speed="2.78" allow="pedestrian" oneway="1" width="2.00"/>
    <type id="highway.bus_guideway" priority="1" speed="27.78" allow="bus" oneway="1"/>
    <type id="highway.cycleway" priority="1" speed="8.33" allow="bicycle" oneway="0" width="1.00"/>
    <type id="highway.footway" priority="1" speed="2.78" allow="pedestrian" oneway="1" width="2.00"/>
    <type id="highway.ford" priority="1" speed="2.78" allow="army" oneway="0"/>
    <type id="highway.living_street" priority="2" speed="2.78" disallow="tram rail_urban rail rail_electric rail_fast ship" oneway="0"/>
    <type id="highway.motorway" priority="14" speed="39.44" allow="private emergency authority army vip passenger hov taxi bus coach delivery truck trailer motorcycle evehicle custom1 custom2" oneway="1"/>
    <type id="highway.motorway_link" priority="9" speed="22.22" allow="private emergency authority army vip passenger hov taxi bus coach delivery truck trailer motorcycle evehicle custom1 custom2" oneway="1"/>
    <type id="highway.path" priority="1" speed="2.78" allow="pedestrian bicycle" oneway="0" width="2.00"/>
    <type id="highway.pedestrian" priority="1" speed="2.78" allow="pedestrian" oneway="1" width="2.00"/>
    <type id="highway.primary" priority="12" speed="27.78" disallow="pedestrian tram rail_urban rail rail_electric rail_fast ship" oneway="0"/>
    <type id="highway.primary_link" priority="7" speed="22.22" disallow="pedestrian tram rail_urban rail rail_electric rail_fast ship" oneway="0"/>
    <type id="highway.raceway" priority="15" speed="83.33" allow="vip" oneway="0"/>
    <type id="highway.residential" priority="3" speed="13.89" disallow="pedestrian tram rail_urban rail rail_electric rail_fast ship" oneway="0"/>
    <type id="highway.secondary" priority="11" speed="27.78" disallow="pedestrian tram rail_urban rail rail_electric rail_fast ship" oneway="0"/>
    <type id="highway.secondary_link" priority="6" speed="22.22" disallow="pedestrian tram rail_urban rail rail_electric rail_fast ship" oneway="0"/>
    <type id="highway.service" priority="1" speed="5.56" allow="pedestrian delivery bicycle" oneway="0"/>
    <type id="highway.stairs" priority="1" speed="1.39" allow="pedestrian" oneway="1" width="2.00"/>
    <type id="highway.step" priority="1" speed="1.39" allow="pedestrian" oneway="1" width="2.00"/>
    <type id="highway.steps" priority="1" speed="1.39" allow="pedestrian" oneway="1" width="2.00"/>
    <type id="highway.tertiary" priority="10" speed="22.22" disallow="pedestrian tram rail_urban rail rail_electric rail_fast ship" oneway="0"/>
    <type id="highway.tertiary_link" priority="5" speed="22.22" disallow="pedestrian tram rail_urban rail rail_electric rail_fast ship" oneway="0"/>
    <type id="highway.track" priority="1" speed="5.56" allow="pedestrian motorcycle moped bicycle" oneway="0"/>
    <type id="highway.trunk" priority="13" speed="27.78" disallow="pedestrian bicycle tram rail_urban rail rail_electric rail_fast ship" oneway="0"/>
    <type id="highway.trunk_link" priority="8" speed="22.22" disallow="pedestrian bicycle tram rail_urban rail rail_electric rail_fast ship" oneway="0"/>
    <type id="highway.unclassified" priority="4" speed="13.89" disallow="pedestrian tram rail_urban rail rail_electric rail_fast ship" oneway="0"/>
    <type id="highway.unsurfaced" priority="1" speed="8.33" disallow="tram rail_urban rail rail_electric rail_fast ship" oneway="0"/>
    <type id="railway.highspeed" priority="21" speed="69.44" allow="rail_fast" oneway="1"/>
    <type id="railway.light_rail" priority="19" speed="27.78" allow="rail_urban" oneway="1"/>
    <type id="railway.preserved" priority="16" speed="27.78" allow="rail" oneway="1"/>
    <type id="railway.rail" priority="20" speed="44.44" allow="rail" oneway="1"/>
    <type id="railway.subway" priority="18" speed="27.78" allow="rail_urban" oneway="1"/>
    <type id="railway.tram" priority="17" speed="13.89" allow="tram" oneway="1"/>

    <edge id=":22_0" function="internal">
        <lane id=":22_0_0" index="0" disallow="pedestrian tram rail_urban rail rail_electric rail_fast ship" speed="36.11" length="3.38" width="3.50" shape="184.60,176.71 181.81,178.61"/>
    </edge>
    <edge id=":23_0" function="internal">
        <lane id=":23_0_0" index="0" disallow="pedestrian tram rail_urban rail rail_electric rail_fast ship" speed="36.11" length="7.64" width="3.50" shape="156.76,175.34 156.68,174.78 156.62,174.27 156.57,173.81 156.53,173.39 156.50,173.01 156.49,172.65 156.48,172.32 156.48,172.01 156.49,171.70 156.51,171.40 156.53,171.09 156.56,170.78 156.59,170.44 156.62,170.09 156.65,169.70 156.69,169.28 156.72,168.81 156.76,168.30 156.79,167.73"/>
    </edge>
    <edge id=":51_0" function="internal">
        <lane id=":51_0_0" index="0" disallow="pedestrian tram rail_urban rail rail_electric rail_fast ship" speed="36.11" length="29.91" width="3.50" shape="121.36,177.75 115.35,190.32 108.10,204.56"/>
    </edge>
    <edge id=":51_1" function="internal">
        <lane id=":51_1_0" index="0" disallow="pedestrian tram rail_urban rail rail_electric rail_fast ship" speed="11.09" length="29.56" width="3.48" shape="121.36,177.75 120.73,178.98 120.01,180.11 119.18,181.17 118.22,182.11 117.15,182.92 115.97,183.56 114.72,184.04 113.41,184.34 112.07,184.48 110.73,184.49 109.39,184.37 106.76,183.86 104.19,183.07 100.48,181.51 96.91,179.64 95.76,178.98"/>
    </edge>
    <edge id=":51_2" function="internal">
        <lane id=":51_2_0" index="0" disallow="pedestrian tram rail_urban rail rail_electric rail_fast ship" speed="9.97" length="23.73" width="3.50" shape="97.43,175.91 98.53,176.54 101.64,178.18 104.83,179.56 106.97,180.27 109.16,180.75 110.20,180.88 111.25,180.92 112.27,180.86 113.24,180.69 114.16,180.41 115.01,180.01 115.79,179.48 116.50,178.84 117.13,178.09 117.68,177.25 118.18,176.29"/>
    </edge>
    <edge id=":51_3" function="internal">
        <lane id=":51_3_0" index="0" disallow="pedestrian tram rail_urban rail rail_electric rail_fast ship" speed="12.35" length="34.54" width="3.50" shape="97.43,175.91 99.61,177.27 102.58,179.44 104.47,181.09 106.22,182.92 107.78,184.95 109.09,187.19 110.06,189.58 110.42,190.88 110.66,192.18 110.79,193.50 110.82,194.84 110.58,197.40 110.01,199.92 109.15,202.31 108.10,204.56"/>
    </edge>
    <edge id=":51_4" function="internal">
        <lane id=":51_4_0" index="0" disallow="pedestrian tram rail_urban rail rail_electric rail_fast ship" speed="11.34" length="29.07" width="3.48" shape="104.99,202.97 105.90,201.02 106.62,198.99 107.09,196.88 107.26,194.74 107.22,193.66 107.10,192.59 106.89,191.53 106.59,190.50 105.76,188.51 104.65,186.67 103.31,184.97 101.81,183.43 100.19,182.01 97.57,180.11 95.76,178.98"/>
    </edge>
    <edge id=":51_5" function="internal">
        <lane id=":51_5_0" index="0" disallow="pedestrian tram rail_urban rail rail_electric rail_fast ship" speed="36.11" length="29.76" width="3.50" shape="104.99,202.97 112.21,188.77 118.18,176.29"/>
    </edge>
    <edge id=":52_0" function="internal">
        <lane id=":52_0_0" index="0" disallow="pedestrian tram rail_urban rail rail_electric rail_fast ship" speed="14.38" length="96.71" width="3.50" shape="163.64,118.10 164.50,108.05 165.07,98.01 165.16,91.34 165.04,88.08 164.77,84.97 164.76,82.36 163.40,80.62 161.71,82.29 160.24,84.61 158.59,87.37 157.04,90.28 155.58,93.26 152.81,99.36 148.94,108.67 145.28,118.07 139.48,133.91"/>
    </edge>
    <edge id=":52_1" function="internal">
        <lane id=":52_1_0" index="0" disallow="pedestrian tram rail_urban rail rail_electric rail_fast ship" speed="36.11" length="71.88" width="3.50" shape="163.64,118.10 163.95,112.82 163.91,107.54 163.45,100.15 161.68,82.27 161.32,75.94 161.32,70.65 161.61,66.44 162.22,62.25 162.92,59.16 163.86,56.13 165.03,53.18 166.45,50.35 168.10,47.64"/>
    </edge>
    <edge id=":52_2" function="internal">
        <lane id=":52_2_0" index="0" disallow="pedestrian tram rail_urban rail rail_electric rail_fast ship" speed="29.95" length="83.82" width="3.50" shape="189.52,69.37 185.89,71.22 181.52,73.81 177.35,76.70 173.38,79.86 169.62,83.28 166.06,86.92 162.71,90.75 158.95,95.59 155.47,100.64 152.25,105.87 148.80,112.17 145.65,118.63 142.40,126.19 139.48,133.91"/>
    </edge>
    <edge id=":52_3" function="internal">
        <lane id=":52_3_0" index="0" disallow="pedestrian tram rail_urban rail rail_electric rail_fast ship" speed="36.11" length="70.13" width="3.50" shape="170.99,49.62 169.45,52.13 168.12,54.81 167.02,57.59 166.15,60.45 165.50,63.38 164.93,67.38 164.67,71.43 164.69,76.54 165.08,82.71 166.91,100.38 167.39,107.76 167.43,113.10 167.12,118.41"/>
    </edge>
    <edge id=":52_4" function="internal">
        <lane id=":52_4_0" index="0" disallow="pedestrian tram rail_urban rail rail_electric rail_fast ship" speed="36.11" length="90.01" width="3.50" shape="170.99,49.62 170.61,50.28 168.60,54.82 164.16,66.12 155.31,89.91 139.48,133.91"/>
    </edge>
    <edge id=":52_5" function="internal">
        <lane id=":52_5_0" index="0" disallow="pedestrian tram rail_urban rail rail_electric rail_fast ship" speed="36.11" length="90.91" width="3.50" shape="136.19,132.73 152.10,88.52 161.01,64.59 165.51,53.19 167.59,48.53 168.10,47.64"/>
    </edge>
    <edge id=":52_6" function="internal">
        <lane id=":52_6_0" index="0" disallow="pedestrian tram rail_urban rail rail_electric rail_fast ship" speed="30.43" length="86.53" width="3.50" shape="136.18,132.73 139.18,124.82 142.52,117.07 145.76,110.43 149.31,103.96 152.64,98.57 156.24,93.37 160.13,88.38 163.61,84.41 167.31,80.64 171.22,77.11 175.35,73.83 179.69,70.83 184.23,68.14 187.99,66.22"/>
    </edge>
    <edge id=":52_7" function="internal">
        <lane id=":52_7_0" index="0" disallow="pedestrian tram rail_urban rail rail_electric rail_fast ship" speed="15.68" length="115.38" width="3.50" shape="136.19,132.73 142.84,114.59 147.05,103.79 151.53,93.11 154.77,86.10 156.50,82.65 158.37,79.26 160.44,76.01 162.96,73.09 166.39,72.64 168.02,76.08 168.62,79.89 168.88,83.74 168.96,87.60 168.81,95.33 168.12,106.89 167.12,118.41"/>
    </edge>
    <edge id=":53_0" function="internal">
        <lane id=":53_0_0" index="0" disallow="pedestrian tram rail_urban rail rail_electric rail_fast ship" speed="36.11" length="36.87" width="3.50" shape="107.99,204.78 96.28,227.58 91.26,237.63"/>
    </edge>
    <edge id=":53_1" function="internal">
        <lane id=":53_1_0" index="0" disallow="pedestrian tram rail_urban rail rail_electric rail_fast ship" speed="11.69" length="34.38" width="3.50" shape="107.99,204.78 106.60,207.20 105.02,209.45 103.19,211.49 102.17,212.41 101.07,213.24 99.91,213.96 98.67,214.57 97.38,215.04 96.05,215.36 94.69,215.54 93.31,215.58 91.94,215.49 90.58,215.29 87.93,214.57 85.38,213.55 82.94,212.28 79.47,210.07"/>
    </edge>
    <edge id=":53_2" function="internal">
        <lane id=":53_2_0" index="0" disallow="pedestrian tram rail_urban rail rail_electric rail_fast ship" speed="10.63" length="28.29" width="3.50" shape="81.46,207.19 84.51,209.14 86.59,210.22 88.73,211.09 90.94,211.70 92.01,211.87 93.10,211.95 94.18,211.93 95.23,211.80 96.27,211.56 97.27,211.21 98.23,210.75 99.15,210.19 100.02,209.54 100.83,208.82 102.37,207.12 103.70,205.23 104.88,203.18"/>
    </edge>
    <edge id=":53_3" function="internal">
        <lane id=":53_3_0" index="0" disallow="pedestrian tram rail_urban rail rail_electric rail_fast ship" speed="13.14" length="35.44" width="3.50" shape="81.46,207.19 84.41,209.44 87.13,211.93 88.82,213.79 90.34,215.80 91.66,217.98 92.72,220.32 93.48,222.80 93.88,225.36 93.94,227.94 93.66,230.50 93.09,232.98 92.27,235.37 91.26,237.63"/>
    </edge>
    <edge id=":53_4" function="internal">
        <lane id=":53_4_0" index="0" disallow="pedestrian tram rail_urban rail rail_electric rail_fast ship" speed="12.20" length="30.43" width="3.50" shape="88.12,236.10 89.00,234.12 89.70,232.06 90.18,229.94 90.40,227.78 90.34,225.61 89.98,223.46 89.33,221.39 88.41,219.42 87.27,217.57 85.94,215.84 84.47,214.24 82.06,212.04 79.47,210.07"/>
    </edge>
    <edge id=":53_5" function="internal">
        <lane id=":53_5_0" index="0" disallow="pedestrian tram rail_urban rail rail_electric rail_fast ship" speed="36.11" length="36.94" width="3.50" shape="88.12,236.10 93.16,226.00 104.88,203.18"/>
    </edge>
    <edge id=":54_0" function="internal">
        <lane id=":54_0_0" index="0" disallow="pedestrian tram rail_urban rail rail_electric rail_fast ship" speed="21.46" length="49.84" width="3.50" shape="141.98,185.16 139.78,179.34 137.68,174.59 135.31,169.97 132.63,165.52 130.24,162.12 127.62,158.90 124.74,155.91 122.41,153.84 119.94,151.94 117.33,150.23 114.60,148.74 111.75,147.47"/>
    </edge>
    <edge id=":54_1" function="internal">
        <lane id=":54_1_0" index="0" disallow="pedestrian tram rail_urban rail rail_electric rail_fast ship" speed="26.70" length="52.48" width="3.50" shape="141.98,185.16 139.67,178.15 137.61,171.04 135.87,163.82 134.73,157.54 134.09,152.24 133.86,147.94 133.93,143.62 134.25,140.35 134.84,137.10 135.77,133.90"/>
    </edge>
    <edge id=":54_2" function="internal">
        <lane id=":54_2_0" index="0" disallow="pedestrian tram rail_urban rail rail_electric rail_fast ship" speed="26.02" length="50.13" width="3.50" shape="139.07,135.06 138.22,138.02 137.68,141.04 137.40,144.10 137.35,148.19 137.60,152.27 138.23,157.35 139.35,163.38 141.04,170.34 143.04,177.22 145.28,184.01"/>
    </edge>
    <edge id=":54_3" function="internal">
        <lane id=":54_3_0" index="0" disallow="pedestrian tram rail_urban rail rail_electric rail_fast ship" speed="36.11" length="46.00" width="3.50" shape="139.07,135.06 135.04,145.85 129.91,158.44 123.62,172.80 121.45,177.54"/>
    </edge>
    <edge id=":54_4" function="internal">
        <lane id=":54_4_0" index="0" disallow="pedestrian tram rail_urban rail rail_electric rail_fast ship" speed="12.12" length="34.72" width="3.50" shape="139.07,135.06 137.53,138.77 136.26,141.12 134.76,143.33 132.99,145.32 132.00,146.22 130.94,147.03 129.81,147.74 128.62,148.35 127.38,148.85 126.10,149.23 124.79,149.49 123.47,149.65 120.80,149.67 118.15,149.35 115.55,148.76 111.75,147.47"/>
    </edge>
    <edge id=":54_5" function="internal">
        <lane id=":54_5_0" index="0" disallow="pedestrian tram rail_urban rail rail_electric rail_fast ship" speed="11.10" length="28.98" width="3.50" shape="113.05,144.22 116.35,145.34 118.56,145.84 120.79,146.12 123.02,146.10 124.07,145.97 125.12,145.76 126.14,145.45 127.13,145.06 128.07,144.57 128.97,144.00 129.83,143.35 130.61,142.65 132.10,140.97 133.36,139.12 134.43,137.12 135.77,133.90"/>
    </edge>
    <edge id=":54_6" function="internal">
        <lane id=":54_6_0" index="0" disallow="pedestrian tram rail_urban rail rail_electric rail_fast ship" speed="22.10" length="52.84" width="3.50" shape="113.05,144.22 116.10,145.58 119.05,147.18 121.85,149.00 124.50,151.03 127.01,153.24 130.08,156.41 132.89,159.82 135.43,163.41 138.27,168.09 140.77,172.94 142.98,177.93 145.28,184.01"/>
    </edge>
    <edge id=":54_7" function="internal">
        <lane id=":54_7_0" index="0" disallow="pedestrian tram rail_urban rail rail_electric rail_fast ship" speed="12.84" length="39.61" width="3.50" shape="113.05,144.22 114.23,144.72 116.48,145.86 118.65,147.26 120.64,148.94 122.37,150.90 123.15,152.03 123.81,153.19 124.36,154.40 124.82,155.65 125.18,156.95 125.58,159.50 125.66,162.08 125.47,164.62 125.05,167.11 124.11,170.70 122.89,174.19 121.45,177.54"/>
    </edge>
    <edge id=":54_8" function="internal">
        <lane id=":54_8_0" index="0" disallow="pedestrian tram rail_urban rail rail_electric rail_fast ship" speed="11.91" length="33.86" width="3.50" shape="118.27,176.09 119.56,173.08 120.66,169.99 121.51,166.83 121.89,164.68 122.09,162.50 122.06,160.32 121.76,158.15 121.49,157.09 121.14,156.06 120.71,155.06 120.19,154.09 119.59,153.18 118.18,151.52 116.53,150.09 114.71,148.89 112.76,147.90 111.75,147.47"/>
    </edge>
    <edge id=":54_9" function="internal">
        <lane id=":54_9_0" index="0" disallow="pedestrian tram rail_urban rail rail_electric rail_fast ship" speed="36.11" length="45.69" width="3.50" shape="118.27,176.09 120.42,171.37 126.68,157.09 131.77,144.59 135.77,133.90"/>
    </edge>
    <edge id=":55_0" function="internal">
        <lane id=":55_0_0" index="0" disallow="pedestrian tram rail_urban rail rail_electric rail_fast ship" speed="23.90" length="42.93" width="3.49" shape="191.50,117.21 185.14,122.34 179.77,127.08 175.39,131.37 171.96,135.16 169.42,138.36 167.13,141.76 165.66,144.45 164.48,147.28 163.91,149.24"/>
    </edge>
    <edge id=":55_1" function="internal">
        <lane id=":55_1_0" index="0" disallow="pedestrian tram rail_urban rail rail_electric rail_fast ship" speed="10.33" length="38.28" width="3.50" shape="191.50,117.21 189.16,118.99 184.38,122.38 180.63,124.74 177.99,126.19 175.22,127.43 173.72,127.95 172.13,128.34 170.43,128.51 168.66,128.31 166.97,127.64 165.53,126.53 164.43,125.02 163.80,123.28 163.55,121.57 163.52,119.94 163.61,118.37"/>
    </edge>
    <edge id=":55_2" function="internal">
        <lane id=":55_2_0" index="0" disallow="pedestrian tram rail_urban rail rail_electric rail_fast ship" speed="9.16" length="29.76" width="3.50" shape="167.10,118.69 167.03,119.93 167.08,121.17 167.32,122.39 167.85,123.50 168.76,124.33 169.93,124.73 171.16,124.76 172.39,124.56 173.58,124.22 174.75,123.78 175.88,123.28 178.09,122.15 180.23,120.89 183.35,118.85 187.38,115.95 189.35,114.45"/>
    </edge>
    <edge id=":55_3" function="internal">
        <lane id=":55_3_0" index="0" disallow="pedestrian tram rail_urban rail rail_electric rail_fast ship" speed="36.11" length="30.72" width="3.49" shape="167.10,118.69 164.33,146.09 163.91,149.24"/>
    </edge>
    <edge id=":55_4" function="internal">
        <lane id=":55_4_0" index="0" disallow="pedestrian tram rail_urban rail rail_electric rail_fast ship" speed="36.11" length="30.26" width="3.50" shape="160.50,148.47 160.88,145.51 163.61,118.37"/>
    </edge>
    <edge id=":55_5" function="internal">
        <lane id=":55_5_0" index="0" disallow="pedestrian tram rail_urban rail rail_electric rail_fast ship" speed="24.56" length="45.33" width="3.50" shape="160.50,148.47 161.14,146.25 162.41,143.16 163.98,140.24 166.38,136.61 169.05,133.20 172.64,129.20 177.19,124.71 182.76,119.77 189.35,114.45"/>
    </edge>

    <edge id="44708" from="53" to="51" priority="3" type="highway.residential" spreadType="center" length="155.57" shape="90.60,215.79 106.09,185.30">
        <lane id="44708_0" index="0" disallow="pedestrian tram rail_urban rail rail_electric rail_fast ship" speed="36.11" length="155.57" width="3.50" customShape="1" shape="79.47,210.07 76.01,207.67 68.52,202.78 63.49,199.92 55.51,195.89 49.95,192.91 45.93,190.40 42.11,187.61 39.75,185.52 38.04,183.52 36.51,181.38 33.63,176.98 31.61,173.29 30.14,169.91 29.02,166.41 28.38,163.32 28.05,160.18 28.09,158.08 28.36,156.52 28.90,155.05 29.44,154.14 30.12,153.34 30.93,152.67 32.32,151.94 33.85,151.55 35.42,151.44 38.57,151.70 44.28,152.59 49.92,153.88 55.47,155.52 61.40,157.68 67.69,160.37 75.27,164.04 91.06,172.43 97.43,175.91"/>
    </edge>
    <edge id="44709" from="51" to="53" priority="3" type="highway.residential" spreadType="center" length="144.90" shape="109.20,186.88 93.70,217.37">
        <lane id="44709_0" index="0" disallow="pedestrian tram rail_urban rail rail_electric rail_fast ship" speed="36.11" length="144.90" width="3.48" customShape="1" shape="95.76,178.98 89.56,175.60 74.35,167.50 67.11,163.95 61.13,161.35 55.52,159.24 50.29,157.61 44.97,156.31 39.57,155.37 36.63,155.05 35.30,155.03 34.12,155.16 33.14,155.47 32.71,155.73 32.30,156.14 31.97,156.69 31.65,157.86 31.55,159.13 31.62,160.95 32.02,163.77 32.71,166.55 33.86,169.73 35.31,172.80 37.28,176.21 40.03,180.29 41.48,182.18 43.15,183.88 45.38,185.69 49.02,188.22 52.85,190.52 58.20,193.32 65.92,197.25 70.83,200.09 78.11,204.87 81.47,207.20"/>
    </edge>
    <edge id="44794" from="55" to="42" priority="3" type="highway.residential" spreadType="center" length="70.00" shape="171.70,126.28 248.61,78.03">
        <lane id="44794_0" index="0" disallow="pedestrian tram rail_urban rail rail_electric rail_fast ship" speed="36.11" length="70.00" width="3.50" customShape="1" shape="189.35,114.45 196.62,108.78 208.40,99.77 216.31,94.14 223.18,89.70 229.38,86.12 235.32,83.12 240.95,80.68 246.71,78.59 248.61,78.03"/>
    </edge>
    <edge id="44795" from="47" to="55" priority="3" type="highway.residential" spreadType="center" length="70.00" shape="250.86,81.01 173.56,129.24">
        <lane id="44795_0" index="0" disallow="pedestrian tram rail_urban rail rail_electric rail_fast ship" speed="36.11" length="70.00" width="3.50" customShape="1" shape="250.86,81.01 247.60,81.98 242.01,84.02 236.55,86.41 230.78,89.34 224.74,92.84 218.03,97.20 210.27,102.73 198.67,111.62 191.50,117.21"/>
    </edge>
    <edge id="44828" from="52" to="39" priority="3" type="highway.residential" spreadType="center" length="70.00" shape="164.42,90.53 250.78,35.29">
        <lane id="44828_0" index="0" disallow="pedestrian tram rail_urban rail rail_electric rail_fast ship" speed="36.11" length="70.00" width="3.50" customShape="1" shape="187.99,66.22 195.30,62.69 219.31,50.56 236.12,42.21 249.00,36.20 250.78,35.29"/>
    </edge>
    <edge id="44829" from="50" to="52" priority="3" type="highway.residential" spreadType="center" length="70.01" shape="252.31,38.43 166.30,93.48">
        <lane id="44829_0" index="0" disallow="pedestrian tram rail_urban rail rail_electric rail_fast ship" speed="36.11" length="70.01" width="3.50" customShape="1" shape="252.31,38.43 249.94,39.62 237.18,45.59 220.55,53.86 196.76,65.87 189.51,69.37"/>
    </edge>
    <edge id="44840" from="46" to="22" priority="3" type="highway.residential" spreadType="center" length="68.31">
        <lane id="44840_0" index="0" disallow="pedestrian tram rail_urban rail rail_electric rail_fast ship" speed="36.11" length="68.31" width="3.50" customShape="1" shape="241.56,139.08 235.49,142.50 225.59,148.54 214.62,155.73 199.29,166.35 184.60,176.71"/>
    </edge>
    <edge id="44895" from="55" to="28" priority="3" type="highway.residential" spreadType="center" length="22.73" shape="174.34,128.22 160.10,171.60">
        <lane id="44895_0" index="0" disallow="pedestrian tram rail_urban rail rail_electric rail_fast ship" speed="36.11" length="22.73" width="3.49" customShape="1" shape="163.91,149.24 162.07,157.11 160.89,163.05 160.30,167.56 160.10,171.60"/>
    </edge>
    <edge id="44896" from="23" to="55" priority="3" type="highway.residential" spreadType="center" length="19.66" shape="156.60,171.54 171.02,127.14">
        <lane id="44896_0" index="0" disallow="pedestrian tram rail_urban rail rail_electric rail_fast ship" speed="36.11" length="19.66" width="3.50" customShape="1" shape="156.79,167.73 156.81,167.32 157.42,162.61 158.63,156.48 160.51,148.44"/>
    </edge>
    <edge id="44898" from="52" to="55" priority="3" type="highway.residential" spreadType="center" length="0.29" shape="167.10,91.64 174.39,127.47">
        <lane id="44898_0" index="0" disallow="pedestrian tram rail_urban rail rail_electric rail_fast ship" speed="36.11" length="0.29" width="3.50" customShape="1" shape="167.12,118.41 167.11,118.56 167.10,118.70"/>
    </edge>
    <edge id="44899" from="55" to="52" priority="3" type="highway.residential" spreadType="center" length="0.28" shape="170.97,128.17 163.67,92.34">
        <lane id="44899_0" index="0" disallow="pedestrian tram rail_urban rail rail_electric rail_fast ship" speed="36.11" length="0.28" width="3.50" customShape="1" shape="163.61,118.37 163.63,118.23 163.64,118.09"/>
    </edge>
    <edge id="44901" from="21" to="54" priority="3" type="highway.residential" spreadType="center" length="70.00" shape="47.99,118.39 129.14,158.88">
        <lane id="44901_0" index="0" disallow="pedestrian tram rail_urban rail rail_electric rail_fast ship" speed="36.11" length="70.00" width="3.50" customShape="1" shape="47.99,118.39 59.08,122.80 113.05,144.22"/>
    </edge>
    <edge id="44902" from="54" to="3" priority="3" type="highway.residential" spreadType="center" length="70.00" shape="127.58,162.01 46.69,121.64">
        <lane id="44902_0" index="0" disallow="pedestrian tram rail_urban rail rail_electric rail_fast ship" speed="36.11" length="70.00" width="3.50" customShape="1" shape="111.75,147.47 57.79,126.05 46.69,121.64"/>
    </edge>
    <edge id="44948" from="51" to="54" priority="3" type="highway.residential" spreadType="center" length="0.23" shape="106.29,184.99 127.03,159.26">
        <lane id="44948_0" index="0" disallow="pedestrian tram rail_urban rail rail_electric rail_fast ship" speed="36.11" length="0.23" width="3.50" customShape="1" shape="118.18,176.29 118.27,176.08"/>
    </edge>
    <edge id="44949" from="54" to="51" priority="3" type="highway.residential" spreadType="center" length="0.27" shape="129.75,161.46 109.01,187.19">
        <lane id="44949_0" index="0" disallow="pedestrian tram rail_urban rail rail_electric rail_fast ship" speed="36.11" length="0.27" width="3.50" customShape="1" shape="121.45,177.54 121.39,177.67 121.34,177.79"/>
    </edge>
    <edge id="44951" from="53" to="51" priority="3" type="highway.residential" spreadType="center" length="0.25" shape="90.60,215.79 106.09,185.30">
        <lane id="44951_0" index="0" disallow="pedestrian tram rail_urban rail rail_electric rail_fast ship" speed="36.11" length="0.25" width="3.50" customShape="1" shape="104.88,203.18 104.93,203.08 104.99,202.95"/>
    </edge>
    <edge id="44952" from="51" to="53" priority="3" type="highway.residential" spreadType="center" length="0.28" shape="109.21,186.89 93.71,217.37">
        <lane id="44952_0" index="0" disallow="pedestrian tram rail_urban rail rail_electric rail_fast ship" speed="36.11" length="0.28" width="3.50" customShape="1" shape="108.10,204.56 108.03,204.70 107.97,204.81"/>
    </edge>
    <edge id="44954" from="48" to="53" priority="3" type="highway.residential" spreadType="center" length="18.89" shape="79.75,253.01 90.54,215.93">
        <lane id="44954_0" index="0" disallow="pedestrian tram rail_urban rail rail_electric rail_fast ship" speed="36.11" length="18.89" width="3.50" customShape="1" shape="79.75,253.01 83.93,244.56 88.12,236.08"/>
    </edge>
    <edge id="44955" from="53" to="44" priority="3" type="highway.residential" spreadType="center" length="18.89" shape="93.89,216.91 82.89,254.56">
        <lane id="44955_0" index="0" disallow="pedestrian tram rail_urban rail rail_electric rail_fast ship" speed="36.11" length="18.89" width="3.50" customShape="1" shape="91.26,237.63 87.07,246.11 82.89,254.56"/>
    </edge>
    <edge id="45029" from="52" to="38" priority="3" type="highway.residential" spreadType="center" length="70.00" shape="163.87,91.12 218.29,-0.91">
        <lane id="45029_0" index="0" disallow="pedestrian tram rail_urban rail rail_electric rail_fast ship" speed="36.11" length="70.00" width="3.50" customShape="1" shape="168.10,47.64 169.23,45.98 172.27,41.98 175.90,37.81 180.12,33.51 185.31,28.76 197.24,18.74 203.67,13.12 216.75,0.61 218.29,-0.91"/>
    </edge>
    <edge id="45030" from="49" to="52" priority="3" type="highway.residential" spreadType="center" length="70.10" shape="221.30,1.04 166.88,92.90">
        <lane id="45030_0" index="0" disallow="pedestrian tram rail_urban rail rail_electric rail_fast ship" speed="36.11" length="70.10" width="3.50" customShape="1" shape="221.30,1.04 219.44,2.87 206.34,15.42 199.88,21.10 187.96,31.10 182.82,35.77 178.66,39.99 175.09,44.07 172.11,47.98 170.98,49.61"/>
    </edge>
    <edge id="45032" from="54" to="52" priority="3" type="highway.residential" spreadType="center" length="1.25" shape="126.77,159.63 163.85,91.15">
        <lane id="45032_0" index="0" disallow="pedestrian tram rail_urban rail rail_electric rail_fast ship" speed="36.11" length="1.25" width="3.50" customShape="1" shape="135.77,133.90 135.98,133.31 136.19,132.72"/>
    </edge>