<!-- generated on 2020-12-18 15:45:04.315681 by ipykernel_launcher.py v1_2_0+5214-53edc58fcd
-->
<connections>
	<connection contPos="-4.0" from="708" fromLane="0" keepClear="true" to="723" toLane="0"/>
	<connection contPos="-4.0" from="718" fromLane="0" keepClear="true" to="723" toLane="0"/>
</connections>
