<!-- generated on 2020-12-18 15:45:04.148983 by ipykernel_launcher.py v1_2_0+5214-53edc58fcd
-->
<edges>
	<edge from="1" function="normal" id="708" length="123.66977770166034" numLanes="1" priority="1" speed="36.11111111111111" spreadType="center" to="2">
		<lane allow="pedestrian rail private passenger ship delivery vip emergency bicycle rail_electric army rail_urban trailer coach bus custom2 tram taxi evehicle custom1 motorcycle authority truck hov moped" index="0" length="123.66977770166034" shape="-94.20485,-31.85785 -70.4451,-31.034150000000004 -52.6178,-30.643250000000002 -32.10785,-30.16465 -11.20835,-29.864449999999998 4.70265,-29.53595 16.00845,-29.16655 29.42205,-28.72835" speed="36.11111111111111" width="4.194234877781646"/>
	</edge>
	<edge from="3" function="normal" id="718" length="78.04259280459571" numLanes="1" priority="1" speed="36.11111111111111" spreadType="center" to="2">
		<lane allow="pedestrian rail private passenger ship delivery vip emergency bicycle rail_electric army rail_urban trailer coach custom2 tram taxi evehicle custom1 motorcycle authority truck hov moped" index="0" length="78.04259280459571" shape="-8.61585,33.517849999999996 -7.65465,26.1143 -5.5519,15.32935 -3.2012,7.23005 1.5270100000000002,-3.18225 8.584150000000001,-13.6859 14.8238,-21.92115 17.74955,-24.86775 19.6363,-26.2883 21.4509,-27.334699999999998 24.029,-28.081200000000003 26.22435,-28.487650000000002 28.578249999999997,-28.7036 29.42205,-28.72835" speed="36.11111111111111" width="4.166502755309301"/>
	</edge>
	<edge from="2" function="normal" id="723" length="163.33984421235624" numLanes="1" priority="1" speed="36.11111111111111" spreadType="center" to="4">
		<lane allow="pedestrian rail private passenger ship delivery vip emergency bicycle rail_electric army rail_urban trailer coach bus custom2 tram taxi evehicle custom1 motorcycle authority truck hov moped" index="0" length="163.33984421235624" shape="29.42205,-28.72835 36.6916,-28.48485 57.6937,-27.6551 88.04835,-26.85435 120.3249,-25.7993 163.26375000000002,-24.49115 192.6772,-23.50545" speed="36.11111111111111" width="4.06206810627296"/>
	</edge>
</edges>
