<!-- generated on 2020-12-18 15:45:04.245016 by ipykernel_launcher.py v1_2_0+5214-53edc58fcd
-->
<nodes>
	<node id="1" type="from" x="-94.20485" y="-31.85785"/>
	<node id="2" type="to" x="29.42205" y="-28.72835"/>
	<node id="3" type="from" x="-8.61585" y="33.517849999999996"/>
	<node id="4" type="to" x="192.6772" y="-23.50545"/>
</nodes>
