<routes>
	<vehicle depart="0.1" departLane="0" departPos="63.216824365136794" departSpeed="10.0" id="1" type="passenger">
		<route edges="718 723"/>
	</vehicle>
	<vehicle depart="0.1" departLane="0" departPos="97.33929963414289" departSpeed="14.0" id="2" type="passenger">
		<route edges="708 723"/>
	</vehicle>
</routes>
