<routes>
	<vehicle depart="0.1" departLane="0" departPos="14.011082239542251" departSpeed="0.73735191" id="38" type="bicycle">
		<route edges=":25_4 108605"/>
	</vehicle>
	<vehicle depart="0.1" departLane="0" departPos="66.43480227305159" departSpeed="0.74373874" id="310" type="bicycle">
		<route edges="107265 108605"/>
	</vehicle>
	<vehicle depart="0.1" departLane="0" departPos="11.228849629773979" departSpeed="6.2064816" id="333" type="bicycle">
		<route edges=":25_1 107264"/>
	</vehicle>
	<vehicle depart="0.1" departLane="0" departPos="61.21922575344623" departSpeed="1.1719367" id="313" type="passenger">
		<route edges="107265 108605"/>
	</vehicle>
	<vehicle depart="0.1" departLane="0" departPos="12.098019237800381" departSpeed="0.71590588" id="318" type="passenger">
		<route edges=":25_6 108609"/>
	</vehicle>
	<vehicle depart="0.1" departLane="0" departPos="6.21395674368196" departSpeed="0.19485311" id="319" type="passenger">
		<route edges=":25_6 108609"/>
	</vehicle>
	<vehicle depart="0.1" departLane="0" departPos="53.060468805746176" departSpeed="0.53553958" id="325" type="passenger">
		<route edges="107265 108605"/>
	</vehicle>
	<vehicle depart="0.1" departLane="0" departPos="31.33529939982677" departSpeed="9.7847789" id="338" type="passenger">
		<route edges=":25_2 108609"/>
	</vehicle>
	<vehicle depart="0.1" departLane="0" departPos="53.5889288660665" departSpeed="9.8919661" id="345" type="passenger">
		<route edges="107267 108605"/>
	</vehicle>
	<vehicle depart="0.1" departLane="0" departPos="56.61390895241022" departSpeed="0.6140448" id="322" type="truck">
		<route edges="108608 107264"/>
	</vehicle>
</routes>
