<routes>
	<vehicle depart="0.1" departLane="0" departPos="54.28476522829567" departSpeed="0.19363888" id="32" type="passenger">
		<route edges="11385 11216"/>
	</vehicle>
	<vehicle depart="0.1" departLane="0" departPos="63.103391713522086" departSpeed="0.54678925" id="322" type="passenger">
		<route edges="11385 11216"/>
	</vehicle>
	<vehicle depart="0.1" departLane="0" departPos="7.884081559742786" departSpeed="2.2615949" id="331" type="passenger">
		<route edges=":39_5 11212"/>
	</vehicle>
	<vehicle depart="0.1" departLane="0" departPos="19.649825570430096" departSpeed="0.98392066" id="332" type="passenger">
		<route edges="11215 11212"/>
	</vehicle>
	<vehicle depart="0.1" departLane="0" departPos="69.54538600576936" departSpeed="0.0" id="335" type="passenger">
		<route edges="11729 11215"/>
	</vehicle>
	<vehicle depart="0.1" departLane="0" departPos="62.341915437705865" departSpeed="0.0021032112" id="337" type="passenger">
		<route edges="11729 11215"/>
	</vehicle>
	<vehicle depart="0.1" departLane="0" departPos="21.38494356104478" departSpeed="11.160399" id="342" type="passenger">
		<route edges=":37_2 11219"/>
	</vehicle>
	<vehicle depart="0.1" departLane="0" departPos="54.85230737161581" departSpeed="0.023250063" id="343" type="passenger">
		<route edges="11729 11215"/>
	</vehicle>
	<vehicle depart="0.1" departLane="0" departPos="22.482476746155548" departSpeed="13.406003" id="345" type="passenger">
		<route edges="11216 11219"/>
	</vehicle>
	<vehicle depart="0.1" departLane="0" departPos="11.146158545314092" departSpeed="12.637696" id="346" type="passenger">
		<route edges="11216 11728"/>
	</vehicle>
</routes>
