<routes>
	<vehicle depart="0.1" departLane="1" departPos="29.34695468153622" departSpeed="0.47077386" id="38" type="bicycle">
		<route edges="47715 47788"/>
	</vehicle>
	<vehicle depart="0.1" departLane="1" departPos="26.223736006771556" departSpeed="4.7426277" id="318" type="passenger">
		<route edges="47715 47788"/>
	</vehicle>
	<vehicle depart="0.1" departLane="1" departPos="17.025780374486217" departSpeed="1.3480912" id="322" type="passenger">
		<route edges="47715 47788"/>
	</vehicle>
	<vehicle depart="0.1" departLane="1" departPos="9.277076369587922" departSpeed="0.31029645" id="334" type="passenger">
		<route edges="47715 47788"/>
	</vehicle>
	<vehicle depart="0.1" departLane="0" departPos="26.698478394875117" departSpeed="0.39854172" id="343" type="passenger">
		<route edges="47928 47715"/>
	</vehicle>
	<vehicle depart="0.1" departLane="0" departPos="15.007467674382434" departSpeed="8.6610042" id="345" type="passenger">
		<route edges=":23_3 47788"/>
	</vehicle>
	<vehicle depart="0.1" departLane="0" departPos="20.98693811014421" departSpeed="12.292027" id="348" type="passenger">
		<route edges=":23_9 47734"/>
	</vehicle>
	<vehicle depart="0.1" departLane="0" departPos="15.000186595145012" departSpeed="10.525239" id="352" type="passenger">
		<route edges="47715 47773"/>
	</vehicle>
	<vehicle depart="0.1" departLane="0" departPos="1.25" departSpeed="12.262939" id="351" type="motorcycle">
		<route edges=":23_9 47734"/>
	</vehicle>
	<vehicle depart="0.1" departLane="0" departPos="29.755094855110258" departSpeed="7.7634168" id="354" type="truck">
		<route edges="47929 47715 47734"/>
	</vehicle>
</routes>
