<routes>
	<vehicle depart="0.1" departLane="0" departPos="2.5" departSpeed="0.44450022" id="317" type="passenger">
		<route edges=":72_1 5839 5836"/>
	</vehicle>
	<vehicle depart="0.1" departLane="0" departPos="16.335665766201856" departSpeed="4.8484523" id="332" type="passenger">
		<route edges="5840 4992"/>
	</vehicle>
	<vehicle depart="0.1" departLane="0" departPos="15.389205774831323" departSpeed="15.077543" id="368" type="passenger">
		<route edges="5839 5836 5833"/>
	</vehicle>
	<vehicle depart="0.1" departLane="0" departPos="8.398106003510755" departSpeed="13.887006" id="379" type="passenger">
		<route edges="5839 5836"/>
	</vehicle>
	<vehicle depart="0.1" departLane="0" departPos="26.82851643247263" departSpeed="10.786851" id="384" type="passenger">
		<route edges=":72_4 5839 5836"/>
	</vehicle>
	<vehicle depart="0.1" departLane="0" departPos="45.24008121751114" departSpeed="0.42612694" id="388" type="passenger">
		<route edges="5170 5839"/>
	</vehicle>
	<vehicle depart="0.1" departLane="0" departPos="34.72533905245895" departSpeed="2.5870535" id="394" type="passenger">
		<route edges="5170 4992"/>
	</vehicle>
	<vehicle depart="0.1" departLane="0" departPos="22.827960323250764" departSpeed="4.0757789" id="398" type="passenger">
		<route edges="5170 4992"/>
	</vehicle>
</routes>
