<routes>
	<vehicle depart="0.1" departLane="0" departPos="19.56690589030375" departSpeed="2.8098686" id="313" type="bicycle">
		<route edges=":25_10 11398 12814"/>
	</vehicle>
	<vehicle depart="0.1" departLane="0" departPos="8.797994499187425" departSpeed="6.8963422" id="333" type="bicycle">
		<route edges="12324 11280"/>
	</vehicle>
	<vehicle depart="0.1" departLane="0" departPos="33.87012894776517" departSpeed="1.5098059" id="327" type="bus">
		<route edges="12367 11183 12259"/>
	</vehicle>
	<vehicle depart="0.1" departLane="0" departPos="5.445616965243524" departSpeed="0.013191633" id="33" type="passenger">
		<route edges="11182 12696"/>
	</vehicle>
	<vehicle depart="0.1" departLane="0" departPos="31.633336317330507" departSpeed="2.0310414" id="315" type="passenger">
		<route edges="11281 11284"/>
	</vehicle>
	<vehicle depart="0.1" departLane="0" departPos="5.313293122648758" departSpeed="0.053654659" id="317" type="passenger">
		<route edges="12259 11290"/>
	</vehicle>
	<vehicle depart="0.1" departLane="0" departPos="7.744128140389525" departSpeed="0.27344303" id="320" type="passenger">
		<route edges=":25_11 12324 11280"/>
	</vehicle>
	<vehicle depart="0.1" departLane="0" departPos="13.545626644470751" departSpeed="1.5807765" id="323" type="passenger">
		<route edges="11183 12324 11280"/>
	</vehicle>
	<vehicle depart="0.1" departLane="0" departPos="12.754331160015706" departSpeed="0.040674149" id="331" type="passenger">
		<route edges="12367 11183"/>
	</vehicle>
</routes>
