<routes>
	<vehicle depart="0.1" departLane="0" departPos="16.919156166049707" departSpeed="3.241484" id="334" type="bus">
		<route edges="69032 69387 68986"/>
	</vehicle>
	<vehicle depart="0.1" departLane="0" departPos="2.5" departSpeed="0.29522062" id="38" type="passenger">
		<route edges=":52_4 68915 69275 69278"/>
	</vehicle>
	<vehicle depart="0.1" departLane="0" departPos="16.483774876851808" departSpeed="0.0" id="311" type="passenger">
		<route edges="68911 69036"/>
	</vehicle>
	<vehicle depart="0.1" departLane="0" departPos="35.1601691464012" departSpeed="0.44445004" id="314" type="passenger">
		<route edges=":48_1 69394"/>
	</vehicle>
	<vehicle depart="0.1" departLane="0" departPos="19.276146339873556" departSpeed="1.3253738" id="315" type="passenger">
		<route edges=":48_1 69394"/>
	</vehicle>
	<vehicle depart="0.1" departLane="0" departPos="47.78847579704784" departSpeed="1.3911714" id="318" type="passenger">
		<route edges=":48_1 69394 68915"/>
	</vehicle>
	<vehicle depart="0.1" departLane="0" departPos="8.893191488223557" departSpeed="0.54895764" id="324" type="passenger">
		<route edges="68911 69036"/>
	</vehicle>
	<vehicle depart="0.1" departLane="0" departPos="14.542279434531633" departSpeed="11.936587" id="328" type="passenger">
		<route edges=":52_1 69387 68986"/>
	</vehicle>
	<vehicle depart="0.1" departLane="0" departPos="35.36736389944036" departSpeed="3.1238594" id="329" type="passenger">
		<route edges=":49_2 68911"/>
	</vehicle>
	<vehicle depart="0.1" departLane="0" departPos="11.997973259011044" departSpeed="5.4388151" id="338" type="passenger">
		<route edges=":53_0 69032"/>
	</vehicle>
</routes>
