<!-- generated on Tue Feb  9 22:16:36 2021 by Eclipse SUMO netconvert Version 1.8.0
<configuration xmlns:xsi="http://www.w3.org/2001/XMLSchema-instance" xsi:noNamespaceSchemaLocation="http://sumo.dlr.de/xsd/netconvertConfiguration.xsd">

    <input>
        <node-files value="./converted_scenarios/scenario-factory/DEU_Guetersloh-41_2_I-1-1/DEU_Guetersloh-41_2_I-1-1.nod.xml"/>
        <edge-files value="./converted_scenarios/scenario-factory/DEU_Guetersloh-41_2_I-1-1/DEU_Guetersloh-41_2_I-1-1.edg.xml"/>
        <connection-files value="./converted_scenarios/scenario-factory/DEU_Guetersloh-41_2_I-1-1/DEU_Guetersloh-41_2_I-1-1.con.xml"/>
        <tllogic-files value="./converted_scenarios/scenario-factory/DEU_Guetersloh-41_2_I-1-1/DEU_Guetersloh-41_2_I-1-1.tll.xml"/>
        <type-files value="/home/zen/commonroad-interactive-benchmarks/install/commonroad-map-tool/crmapconverter/sumo_map/templates/DEU.typ.xml"/>
    </input>

    <output>
        <output-file value="./converted_scenarios/scenario-factory/DEU_Guetersloh-41_2_I-1-1/DEU_Guetersloh-41_2_I-1-1.net.xml"/>
    </output>

    <processing>
        <geometry.remove.keep-edges.explicit value="true"/>
        <geometry.avoid-overlap value="true"/>
        <offset.disable-normalization value="true"/>
    </processing>

    <junctions>
        <no-turnarounds value="true"/>
        <junctions.internal-link-detail value="20"/>
    </junctions>

    <report>
        <aggregate-warnings value="5"/>
    </report>

    <random_number>
        <seed value="1234"/>
    </random_number>

</configuration>
--><net xmlns:xsi="http://www.w3.org/2001/XMLSchema-instance" version="1.6" junctionCornerDetail="5" junctionLinkDetail="20" limitTurnSpeed="5.50" xsi:noNamespaceSchemaLocation="http://sumo.dlr.de/xsd/net_file.xsd">

    <location netOffset="0.00,0.00" convBoundary="-855.24,373.62,-616.40,636.99" origBoundary="-855.24,373.62,-616.40,636.99" projParameter="!"/>

    <type id="highway.bridleway" priority="1" speed="2.78" allow="pedestrian" oneway="1" width="2.00"/>
    <type id="highway.bus_guideway" priority="1" speed="27.78" allow="bus" oneway="1"/>
    <type id="highway.cycleway" priority="1" speed="8.33" allow="bicycle" oneway="0" width="1.00"/>
    <type id="highway.footway" priority="1" speed="2.78" allow="pedestrian" oneway="1" width="2.00"/>
    <type id="highway.ford" priority="1" speed="2.78" allow="army" oneway="0"/>
    <type id="highway.living_street" priority="2" speed="2.78" disallow="tram rail_urban rail rail_electric rail_fast ship" oneway="0"/>
    <type id="highway.motorway" priority="14" speed="39.44" allow="private emergency authority army vip passenger hov taxi bus coach delivery truck trailer motorcycle evehicle custom1 custom2" oneway="1"/>
    <type id="highway.motorway_link" priority="9" speed="22.22" allow="private emergency authority army vip passenger hov taxi bus coach delivery truck trailer motorcycle evehicle custom1 custom2" oneway="1"/>
    <type id="highway.path" priority="1" speed="2.78" allow="pedestrian bicycle" oneway="0" width="2.00"/>
    <type id="highway.pedestrian" priority="1" speed="2.78" allow="pedestrian" oneway="1" width="2.00"/>
    <type id="highway.primary" priority="12" speed="27.78" disallow="pedestrian tram rail_urban rail rail_electric rail_fast ship" oneway="0"/>
    <type id="highway.primary_link" priority="7" speed="22.22" disallow="pedestrian tram rail_urban rail rail_electric rail_fast ship" oneway="0"/>
    <type id="highway.raceway" priority="15" speed="83.33" allow="vip" oneway="0"/>
    <type id="highway.residential" priority="3" speed="13.89" disallow="pedestrian tram rail_urban rail rail_electric rail_fast ship" oneway="0"/>
    <type id="highway.secondary" priority="11" speed="27.78" disallow="pedestrian tram rail_urban rail rail_electric rail_fast ship" oneway="0"/>
    <type id="highway.secondary_link" priority="6" speed="22.22" disallow="pedestrian tram rail_urban rail rail_electric rail_fast ship" oneway="0"/>
    <type id="highway.service" priority="1" speed="5.56" allow="pedestrian delivery bicycle" oneway="0"/>
    <type id="highway.stairs" priority="1" speed="1.39" allow="pedestrian" oneway="1" width="2.00"/>
    <type id="highway.step" priority="1" speed="1.39" allow="pedestrian" oneway="1" width="2.00"/>
    <type id="highway.steps" priority="1" speed="1.39" allow="pedestrian" oneway="1" width="2.00"/>
    <type id="highway.tertiary" priority="10" speed="22.22" disallow="pedestrian tram rail_urban rail rail_electric rail_fast ship" oneway="0"/>
    <type id="highway.tertiary_link" priority="5" speed="22.22" disallow="pedestrian tram rail_urban rail rail_electric rail_fast ship" oneway="0"/>
    <type id="highway.track" priority="1" speed="5.56" allow="pedestrian motorcycle moped bicycle" oneway="0"/>
    <type id="highway.trunk" priority="13" speed="27.78" disallow="pedestrian bicycle tram rail_urban rail rail_electric rail_fast ship" oneway="0"/>
    <type id="highway.trunk_link" priority="8" speed="22.22" disallow="pedestrian bicycle tram rail_urban rail rail_electric rail_fast ship" oneway="0"/>
    <type id="highway.unclassified" priority="4" speed="13.89" disallow="pedestrian tram rail_urban rail rail_electric rail_fast ship" oneway="0"/>
    <type id="highway.unsurfaced" priority="1" speed="8.33" disallow="tram rail_urban rail rail_electric rail_fast ship" oneway="0"/>
    <type id="railway.highspeed" priority="21" speed="69.44" allow="rail_fast" oneway="1"/>
    <type id="railway.light_rail" priority="19" speed="27.78" allow="rail_urban" oneway="1"/>
    <type id="railway.preserved" priority="16" speed="27.78" allow="rail" oneway="1"/>
    <type id="railway.rail" priority="20" speed="44.44" allow="rail" oneway="1"/>
    <type id="railway.subway" priority="18" speed="27.78" allow="rail_urban" oneway="1"/>
    <type id="railway.tram" priority="17" speed="13.89" allow="tram" oneway="1"/>

    <edge id=":26_0" function="internal">
        <lane id=":26_0_0" index="0" disallow="pedestrian tram rail_urban rail rail_electric rail_fast ship" speed="36.11" length="2.29" width="3.50" shape="-630.86,515.58 -633.12,515.22"/>
    </edge>
    <edge id=":48_0" function="internal">
        <lane id=":48_0_0" index="0" disallow="pedestrian tram rail_urban rail rail_electric rail_fast ship" speed="36.11" length="50.11" width="3.50" shape="-644.58,492.87 -648.25,459.33 -650.29,443.09"/>
    </edge>
    <edge id=":48_1" function="internal">
        <lane id=":48_1_0" index="0" disallow="pedestrian tram rail_urban rail rail_electric rail_fast ship" speed="36.11" length="50.22" width="3.50" shape="-646.83,442.61 -644.78,458.90 -641.10,492.50"/>
    </edge>
    <edge id=":48_2" function="internal">
        <lane id=":48_2_0" index="0" disallow="pedestrian tram rail_urban rail rail_electric rail_fast ship" speed="18.11" length="39.84" width="3.50" shape="-652.02,482.52 -651.73,481.79 -650.58,477.79 -649.69,473.19 -649.11,468.02 -648.89,462.29 -649.03,456.05 -649.60,448.78 -650.29,443.09"/>
    </edge>
    <edge id=":49_0" function="internal">
        <lane id=":49_0_0" index="0" disallow="pedestrian tram rail_urban rail rail_electric rail_fast ship" speed="36.11" length="37.82" width="3.50" shape="-665.86,511.39 -684.67,509.45 -703.48,507.51"/>
    </edge>
    <edge id=":49_1" function="internal">
        <lane id=":49_1_0" index="0" disallow="pedestrian tram rail_urban rail rail_electric rail_fast ship" speed="18.83" length="30.54" width="3.49" shape="-703.14,504.03 -697.47,504.42 -691.78,504.45 -686.62,504.10 -682.02,503.46 -677.47,502.48 -672.97,501.14"/>
    </edge>
    <edge id=":49_2" function="internal">
        <lane id=":49_2_0" index="0" disallow="pedestrian tram rail_urban rail rail_electric rail_fast ship" speed="36.11" length="37.84" width="3.50" shape="-703.14,504.03 -684.31,505.97 -665.50,507.91"/>
    </edge>
    <edge id=":50_0" function="internal">
        <lane id=":50_0_0" index="0" disallow="pedestrian tram rail_urban rail rail_electric rail_fast ship" speed="11.73" length="29.73" width="3.50" shape="-768.98,520.18 -768.98,519.02 -769.18,515.56 -769.51,513.35 -770.03,511.19 -770.76,509.13 -771.73,507.20 -772.97,505.42 -773.65,504.66 -774.41,503.92 -775.20,503.27 -777.02,502.09 -778.98,501.18 -781.07,500.51 -783.25,500.06 -785.51,499.79"/>
    </edge>
    <edge id=":50_1" function="internal">
        <lane id=":50_1_0" index="0" disallow="pedestrian tram rail_urban rail rail_electric rail_fast ship" speed="12.01" length="35.46" width="3.50" shape="-768.98,520.18 -768.72,516.06 -768.29,513.37 -767.60,510.73 -766.58,508.21 -765.94,507.01 -765.19,505.86 -764.35,504.79 -763.41,503.81 -762.38,502.92 -761.26,502.14 -760.08,501.46 -758.84,500.90 -757.56,500.44 -754.91,499.81 -752.20,499.50 -749.48,499.47 -746.76,499.65"/>
    </edge>
    <edge id=":50_2" function="internal">
        <lane id=":50_2_0" index="0" disallow="pedestrian tram rail_urban rail rail_electric rail_fast ship" speed="11.00" length="29.56" width="3.50" shape="-747.08,503.13 -749.46,502.97 -751.80,503.00 -754.08,503.26 -756.31,503.79 -757.32,504.16 -758.31,504.62 -759.25,505.16 -760.14,505.78 -760.95,506.48 -761.69,507.26 -762.36,508.12 -762.95,509.04 -763.46,509.98 -764.31,512.11 -764.89,514.33 -765.26,516.62 -765.48,520.22"/>
    </edge>
    <edge id=":50_3" function="internal">
        <lane id=":50_3_0" index="0" disallow="pedestrian tram rail_urban rail rail_electric rail_fast ship" speed="36.11" length="38.58" width="3.50" shape="-747.08,503.13 -751.24,502.73 -785.51,499.79"/>
    </edge>
    <edge id=":50_4" function="internal">
        <lane id=":50_4_0" index="0" disallow="pedestrian tram rail_urban rail rail_electric rail_fast ship" speed="36.11" length="38.59" width="3.50" shape="-785.20,496.30 -750.91,499.24 -746.76,499.65"/>
    </edge>
    <edge id=":50_5" function="internal">
        <lane id=":50_5_0" index="0" disallow="pedestrian tram rail_urban rail rail_electric rail_fast ship" speed="12.70" length="35.02" width="3.50" shape="-785.20,496.30 -782.62,496.61 -780.09,497.14 -777.62,497.92 -775.26,499.00 -773.08,500.40 -772.07,501.21 -771.13,502.11 -770.27,503.07 -768.77,505.19 -767.60,507.49 -766.72,509.93 -766.10,512.45 -765.71,515.01 -765.48,518.89 -765.48,520.22"/>
    </edge>
    <edge id=":51_0" function="internal">
        <lane id=":51_0_0" index="0" disallow="pedestrian tram rail_urban rail rail_electric rail_fast ship" speed="23.60" length="52.76" width="3.50" shape="-744.07,620.02 -747.66,615.07 -748.81,613.01 -749.69,610.78 -750.25,608.45 -750.52,606.09 -750.51,603.73 -750.11,600.33 -749.38,597.01 -748.08,592.75 -744.28,582.59 -742.55,577.56 -741.46,573.52 -740.91,570.44"/>
    </edge>
    <edge id=":51_1" function="internal">
        <lane id=":51_1_0" index="0" disallow="pedestrian tram rail_urban rail rail_electric rail_fast ship" speed="23.47" length="50.14" width="3.46" shape="-737.45,570.94 -738.01,574.05 -739.13,578.10 -740.90,583.06 -744.72,592.87 -746.02,596.87 -746.76,599.94 -747.18,603.07 -747.21,605.18 -747.01,607.27 -746.54,609.32 -745.78,611.28 -744.76,613.12 -741.34,617.98"/>
    </edge>
    <edge id=":51_2" function="internal">
        <lane id=":51_2_0" index="0" disallow="pedestrian tram rail_urban rail rail_electric rail_fast ship" speed="15.55" length="111.89" width="3.50" shape="-737.45,570.94 -739.27,583.79 -740.67,592.33 -742.30,600.83 -743.24,605.06 -744.30,609.25 -745.55,613.40 -747.10,617.43 -749.36,621.09 -753.09,621.87 -755.84,618.63 -757.64,614.70 -759.06,610.61 -760.29,606.46 -761.38,602.27 -763.28,593.83 -765.72,581.08 -767.84,568.26"/>
    </edge>
    <edge id=":51_3" function="internal">
        <lane id=":51_3_0" index="0" disallow="pedestrian tram rail_urban rail rail_electric rail_fast ship" speed="14.33" length="94.62" width="3.50" shape="-764.38,567.71 -762.51,579.04 -760.36,590.29 -758.69,597.71 -757.74,601.37 -756.69,604.98 -755.47,608.49 -754.04,611.73 -752.54,614.12 -750.73,613.74 -749.33,611.10 -748.03,607.74 -746.95,604.18 -746.03,600.52 -745.20,596.83 -743.76,589.35 -742.53,581.83 -740.91,570.44"/>
    </edge>
    <edge id=":52_0" function="internal">
        <lane id=":52_0_0" index="0" disallow="pedestrian tram rail_urban rail rail_electric rail_fast ship" speed="8.49" length="13.32" width="3.50" shape="-641.54,521.24 -642.14,517.01 -642.60,516.12 -643.25,515.35 -644.05,514.74 -644.93,514.26 -645.87,513.88 -646.83,513.59 -647.81,513.37 -649.80,513.07"/>
    </edge>
    <edge id=":52_1" function="internal">
        <lane id=":52_1_0" index="0" disallow="pedestrian tram rail_urban rail rail_electric rail_fast ship" speed="36.11" length="20.03" width="3.50" shape="-641.54,521.24 -642.80,509.66 -643.70,501.33"/>
    </edge>
    <edge id=":52_2" function="internal">
        <lane id=":52_2_0" index="0" disallow="pedestrian tram rail_urban rail rail_electric rail_fast ship" speed="8.09" length="17.37" width="3.50" shape="-641.54,521.24 -641.95,516.22 -641.54,514.51 -640.54,513.07 -639.05,512.14 -637.34,511.69 -635.58,511.56 -633.81,511.63 -632.06,511.85"/>
    </edge>
    <edge id=":52_3" function="internal">
        <lane id=":52_3_0" index="0" disallow="pedestrian tram rail_urban rail rail_electric rail_fast ship" speed="6.44" length="10.54" width="3.50" shape="-632.60,515.31 -633.84,515.15 -635.05,515.08 -636.20,515.14 -637.21,515.35 -637.92,515.72 -638.26,516.13 -638.44,516.70 -638.08,520.65"/>
    </edge>
    <edge id=":52_4" function="internal">
        <lane id=":52_4_0" index="0" disallow="pedestrian tram rail_urban rail rail_electric rail_fast ship" speed="36.11" length="17.35" width="3.50" shape="-632.60,515.31 -643.34,513.81 -649.80,513.07"/>
    </edge>
    <edge id=":52_5" function="internal">
        <lane id=":52_5_0" index="0" disallow="pedestrian tram rail_urban rail rail_electric rail_fast ship" speed="10.36" length="19.39" width="3.50" shape="-632.60,515.31 -633.96,515.02 -635.31,514.60 -636.61,514.01 -637.85,513.26 -638.98,512.36 -639.98,511.33 -640.84,510.20 -641.57,508.99 -642.16,507.75 -642.64,506.45 -643.31,503.91 -643.70,501.33"/>
    </edge>
    <edge id=":52_6" function="internal">
        <lane id=":52_6_0" index="0" disallow="pedestrian tram rail_urban rail rail_electric rail_fast ship" speed="9.07" length="14.78" width="3.50" shape="-640.22,500.96 -639.91,503.05 -639.39,505.10 -639.03,506.10 -638.60,507.06 -638.08,507.98 -637.46,508.83 -636.75,509.61 -635.94,510.29 -635.05,510.86 -634.09,511.30 -633.09,511.63 -632.06,511.85"/>
    </edge>
    <edge id=":52_7" function="internal">
        <lane id=":52_7_0" index="0" disallow="pedestrian tram rail_urban rail rail_electric rail_fast ship" speed="36.11" length="19.81" width="3.50" shape="-640.22,500.96 -639.32,509.28 -638.08,520.65"/>
    </edge>
    <edge id=":52_8" function="internal">
        <lane id=":52_8_0" index="0" disallow="pedestrian tram rail_urban rail rail_electric rail_fast ship" speed="8.51" length="18.64" width="3.50" shape="-640.22,500.96 -640.09,502.66 -640.08,504.35 -640.21,506.04 -640.53,507.71 -641.11,509.30 -642.02,510.73 -643.27,511.86 -644.78,512.63 -646.42,513.04 -648.11,513.16 -649.80,513.07"/>
    </edge>
    <edge id=":52_9" function="internal">
        <lane id=":52_9_0" index="0" disallow="pedestrian tram rail_urban rail rail_electric rail_fast ship" speed="6.99" length="12.27" width="3.50" shape="-649.44,509.59 -648.28,509.65 -647.17,509.57 -646.19,509.32 -645.34,508.87 -644.67,508.20 -644.18,507.32 -643.85,506.28 -643.66,505.12 -643.58,503.89 -643.60,502.62 -643.70,501.33"/>
    </edge>
    <edge id=":52_10" function="internal">
        <lane id=":52_10_0" index="0" disallow="pedestrian tram rail_urban rail rail_electric rail_fast ship" speed="36.11" length="17.53" width="3.50" shape="-649.44,509.59 -642.90,510.34 -632.06,511.85"/>
    </edge>
    <edge id=":52_11" function="internal">
        <lane id=":52_11_0" index="0" disallow="pedestrian tram rail_urban rail rail_electric rail_fast ship" speed="9.78" length="17.86" width="3.50" shape="-649.44,509.59 -646.81,510.01 -645.46,510.35 -644.13,510.80 -642.81,511.41 -641.55,512.22 -640.41,513.26 -639.46,514.54 -638.80,516.00 -638.08,520.65"/>
    </edge>
    <edge id=":53_0" function="internal">
        <lane id=":53_0_0" index="0" disallow="pedestrian tram rail_urban rail rail_electric rail_fast ship" speed="36.11" length="38.38" width="3.49" shape="-635.66,567.82 -637.69,553.43 -640.57,529.76"/>
    </edge>
    <edge id=":53_1" function="internal">
        <lane id=":53_1_0" index="0" disallow="pedestrian tram rail_urban rail rail_electric rail_fast ship" speed="36.11" length="38.26" width="3.50" shape="-637.09,529.35 -634.22,552.96 -632.20,567.29"/>
    </edge>

    <edge id="68911" from="49" to="52" priority="3" type="highway.residential" spreadType="center" length="16.15" shape="-679.53,503.49 -640.69,509.25">
        <lane id="68911_0" index="0" disallow="pedestrian tram rail_urban rail rail_electric rail_fast ship" speed="36.11" length="16.15" width="3.50" customShape="1" shape="-665.50,507.91 -665.37,507.92 -665.24,507.94 -657.47,508.75 -649.69,509.57 -649.57,509.58 -649.44,509.59"/>
    </edge>
    <edge id="68915" from="52" to="49" priority="3" type="highway.residential" spreadType="center" length="16.15" shape="-641.20,512.70 -680.05,506.95">
        <lane id="68915_0" index="0" disallow="pedestrian tram rail_urban rail rail_electric rail_fast ship" speed="36.11" length="16.15" width="3.50" customShape="1" shape="-649.80,513.07 -649.93,513.06 -650.06,513.05 -657.83,512.23 -665.61,511.42 -665.73,511.40 -665.86,511.39"/>
    </edge>
    <edge id="68986" from="48" to="21" priority="3" type="highway.residential" spreadType="center" length="70.00" shape="-649.93,473.06 -662.01,374.09">
        <lane id="68986_0" index="0" disallow="pedestrian tram rail_urban rail rail_electric rail_fast ship" speed="36.11" length="70.00" width="3.50" customShape="1" shape="-650.29,443.09 -650.50,441.60 -653.09,424.17 -657.42,398.87 -662.01,374.09"/>
    </edge>
    <edge id="68987" from="33" to="48" priority="3" type="highway.residential" spreadType="center" length="69.99" shape="-658.53,373.62 -646.46,472.63">
        <lane id="68987_0" index="0" disallow="pedestrian tram rail_urban rail rail_electric rail_fast ship" speed="36.11" length="69.99" width="3.50" customShape="1" shape="-658.53,373.62 -653.97,398.29 -649.63,423.64 -647.04,441.10 -646.82,442.62"/>
    </edge>
    <edge id="69013" from="12" to="51" priority="3" type="highway.residential" spreadType="center" length="64.85" shape="-687.60,542.62 -749.31,586.02">
        <lane id="69013_0" index="0" disallow="pedestrian tram rail_urban rail rail_electric rail_fast ship" speed="36.11" length="64.85" width="3.50" customShape="1" shape="-687.60,542.62 -692.44,543.48 -703.14,544.94 -710.92,546.04 -716.23,547.05 -720.99,548.25 -725.19,549.64 -727.92,550.73 -729.69,551.59 -731.32,552.69 -732.71,554.07 -733.54,555.28 -734.36,557.07 -735.68,561.28 -736.55,565.11 -737.46,570.97"/>
    </edge>
    <edge id="69014" from="51" to="11" priority="3" type="highway.residential" spreadType="center" length="69.15" shape="-751.32,583.16 -688.25,539.18">
        <lane id="69014_0" index="0" disallow="pedestrian tram rail_urban rail rail_electric rail_fast ship" speed="36.11" length="69.15" width="3.50" customShape="1" shape="-740.91,570.44 -739.97,564.36 -739.03,560.28 -737.60,555.75 -736.66,553.70 -735.68,552.20 -734.10,550.49 -732.26,549.08 -730.28,547.98 -727.36,546.73 -722.93,545.19 -717.91,543.84 -712.34,542.73 -704.25,541.55 -693.21,540.06 -688.25,539.18"/>
    </edge>
    <edge id="69032" from="53" to="52" priority="3" type="highway.residential" spreadType="center" length="8.58" shape="-638.10,548.85 -642.75,511.18">
        <lane id="69032_0" index="0" disallow="pedestrian tram rail_urban rail rail_electric rail_fast ship" speed="36.11" length="8.58" width="3.49" customShape="1" shape="-640.57,529.76 -640.58,529.63 -640.59,529.50 -641.24,523.87 -641.54,521.24"/>
    </edge>
    <edge id="69036" from="52" to="53" priority="3" type="highway.residential" spreadType="center" length="8.77" shape="-639.29,510.75 -634.63,548.42">
        <lane id="69036_0" index="0" disallow="pedestrian tram rail_urban rail rail_electric rail_fast ship" speed="36.11" length="8.77" width="3.50" customShape="1" shape="-638.08,520.65 -637.76,523.47 -637.12,529.10 -637.10,529.23 -637.09,529.36"/>
    </edge>
    <edge id="69051" from="49" to="48" priority="3" type="highway.residential" spreadType="center" length="28.44">
        <lane id="69051_0" index="0" disallow="pedestrian tram rail_urban rail rail_electric rail_fast ship" speed="36.11" length="28.44" width="3.49" customShape="1" shape="-671.49,503.11 -659.06,493.81 -649.78,484.82"/>
    </edge>
    <edge id="69274" from="50" to="49" priority="3" type="highway.residential" spreadType="center" length="43.85" shape="-766.56,504.79 -679.82,503.47">
        <lane id="69274_0" index="0" disallow="pedestrian tram rail_urban rail rail_electric rail_fast ship" speed="36.11" length="43.85" width="3.50" customShape="1" shape="-746.76,499.65 -724.95,501.84 -703.13,504.03"/>
    </edge>
    <edge id="69275" from="49" to="50" priority="3" type="highway.residential" spreadType="center" length="43.85" shape="-679.76,506.97 -766.51,508.29">
        <lane id="69275_0" index="0" disallow="pedestrian tram rail_urban rail rail_electric rail_fast ship" speed="36.11" length="43.85" width="3.50" customShape="1" shape="-703.48,507.51 -725.30,505.32 -747.11,503.13"/>
    </edge>
    <edge id="69277" from="31" to="50" priority="3" type="highway.residential" spreadType="center" length="70.00" shape="-854.93,490.16 -766.18,504.82">
        <lane id="69277_0" index="0" disallow="pedestrian tram rail_urban rail rail_electric rail_fast ship" speed="36.11" length="70.00" width="3.50" customShape="1" shape="-854.93,490.16 -831.40,492.06 -802.78,494.72 -785.20,496.30"/>
    </edge>
    <edge id="69278" from="50" to="19" priority="3" type="highway.residential" spreadType="center" length="70.00" shape="-766.75,508.27 -855.24,493.65">
        <lane id="69278_0" index="0" disallow="pedestrian tram rail_urban rail rail_electric rail_fast ship" speed="36.11" length="70.00" width="3.50" customShape="1" shape="-785.51,499.79 -803.09,498.21 -831.72,495.55 -855.24,493.65"/>
    </edge>
    <edge id="69375" from="26" to="52" priority="3" type="highway.residential" spreadType="center" length="0.19" shape="-632.35,515.35 -641.81,512.53">
        <lane id="69375_0" index="0" disallow="pedestrian tram rail_urban rail rail_electric rail_fast ship" speed="36.11" length="0.19" width="3.50" customShape="1" shape="-633.12,515.22 -633.31,515.19"/>
    </edge>
    <edge id="69387" from="52" to="48" priority="3" type="highway.residential" spreadType="center" length="8.51" shape="-642.72,511.36 -649.92,473.14">
        <lane id="69387_0" index="0" disallow="pedestrian tram rail_urban rail rail_electric rail_fast ship" speed="36.11" length="8.51" width="3.50" customShape="1" shape="-643.70,501.33 -643.71,501.20 -643.72,501.07 -643.93,499.14 -644.13,497.21 -644.14,497.08 -644.16,496.95 -644.36,495.04 -644.56,493.12 -644.57,493.00 -644.58,492.87"/>
    </edge>
    <edge id="69394" from="48" to="52" priority="3" type="highway.residential" spreadType="center" length="8.51" shape="-646.48,472.49 -639.29,510.72">
        <lane id="69394_0" index="0" disallow="pedestrian tram rail_urban rail rail_electric rail_fast ship" speed="36.11" length="8.51" width="3.50" customShape="1" shape="-641.10,492.50 -641.09,492.63 -641.08,492.76 -640.87,494.67 -640.67,496.58 -640.66,496.72 -640.65,496.85 -640.45,498.78 -640.24,500.71 -640.23,500.84 -640.22,500.96"/>
    </edge>
    <edge id="69699" from="51" to="29" priority="3" type="highway.residential" spreadType="center" length="0.32" shape="-748.62,584.12 -741.16,618.24">
        <lane id="69699_0" index="0" disallow="pedestrian tram rail_urban rail rail_electric rail_fast ship" speed="36.11" length="0.32" width="3.46" customShape="1" shape="-741.34,617.98 -741.16,618.24"/>
    </edge>
    <edge id="69700" from="32" to="51" priority="3" type="highway.residential" spreadType="center" length="0.36" shape="-743.86,620.31 -751.93,584.86">
        <lane id="69700_0" index="0" disallow="pedestrian tram rail_urban rail rail_electric rail_fast ship" speed="36.11" length="0.36" width="3.35" customShape="1" shape="-743.86,620.31 -744.07,620.02"/>
    </edge>
    <edge id="69702" from="50" to="51" priority="3" type="highway.residential" spreadType="center" length="47.67" shape="-764.79,506.18 -748.56,584.25">
        <lane id="69702_0" index="0" disallow="pedestrian tram rail_urban rail rail_electric rail_fast ship" speed="36.11" length="47.67" width="3.50" customShape="1" shape="-765.48,520.22 -765.62,533.22 -765.95,548.26 -765.86,554.28 -765.42,559.78 -764.37,567.80"/>
    </edge>
    <edge id="69703" from="51" to="50" priority="3" type="highway.residential" spreadType="center" length="48.20" shape="-751.99,584.96 -768.21,506.89">
        <lane id="69703_0" index="0" disallow="pedestrian tram rail_urban rail rail_electric rail_fast ship" speed="36.11" length="48.20" width="3.50" customShape="1" shape="-767.84,568.26 -768.90,560.18 -769.35,554.55 -769.45,548.41 -769.12,533.25 -768.98,520.15"/>
    </edge>
    <edge id="69767" from="35" to="53" priority="3" type="highway.residential" spreadType="center" length="70.00" shape="-625.00,636.99 -638.11,548.78">
        <lane id="69767_0" index="0" disallow="pedestrian tram rail_urban rail rail_electric rail_fast ship" speed="36.11" length="70.00" width="3.50" customShape="1" shape="-625.00,636.99 -635.66,567.81"/>
    </edge>
    <edge id="69768" from="53" to="25" priority="3" type="highway.residential" spreadType="center" length="70.00" shape="-634.65,548.26 -621.54,636.47">
        <lane id="69768_0" index="0" disallow="pedestrian tram rail_urban rail rail_electric rail_fast ship" speed="36.11" length="70.00" width="3.50" customShape="1" shape="-632.20,567.29 -621.54,636.47"/>
    </edge>
    <edge id="73868" from="28" to="26" priority="3" type="highway.residential" spreadType="center" length="14.09">
        <lane id="73868_0" index="0" disallow="pedestrian tram rail_urban rail rail_electric rail_fast ship" speed="36.11" length="14.09" width="3.50" customShape="1" shape="-616.94,517.75 -624.64,516.55 -630.86,515.58"/>
    </edge>
    <edge id="73892" from="52" to="45" priority="3" type="highway.residential" spreadType="center" length="15.85" shape="-640.79,509.23 -616.40,514.29">
        <lane id="73892_0" index="0" disallow="pedestrian tram rail_urban rail rail_electric rail_fast ship" speed="36.11" length="15.85" width="3.50" customShape="1" shape="-632.06,511.85 -631.93,511.87 -631.81,511.89 -624.10,513.09 -616.40,514.29"/>
    </edge>

    <junction id="11" type="dead_end" x="-688.25" y="539.18" incLanes="69014_0" intLanes="" shape="-688.55,537.46 -687.94,540.90" rightOfWay="edgePriority"/>
    <junction id="12" type="dead_end" x="-687.60" y="542.62" incLanes="" intLanes="" shape="-687.91,540.90 -687.30,544.34" rightOfWay="edgePriority"/>
    <junction id="19" type="dead_end" x="-855.24" y="493.65" incLanes="69278_0" intLanes="" shape="-855.38,495.39 -855.10,491.90" rightOfWay="edgePriority"/>
    <junction id="21" type="dead_end" x="-662.01" y="374.09" incLanes="68986_0" intLanes="" shape="-663.73,374.41 -660.29,373.77" rightOfWay="edgePriority"/>
    <junction id="25" type="dead_end" x="-621.54" y="636.47" incLanes="69768_0" intLanes="" shape="-619.81,636.21 -623.26,636.74" rightOfWay="edgePriority"/>
    <junction id="26" type="priority" x="-632.35" y="515.35" incLanes="73868_0" intLanes=":26_0_0" shape="-631.13,517.31 -630.59,513.85 -633.56,513.38 -634.10,516.84" rightOfWay="edgePriority">
        <request index="0" response="0" foes="0" cont="0"/>
    </junction>
    <junction id="28" type="dead_end" x="-616.94" y="517.75" incLanes="" intLanes="" shape="-616.67,516.02 -617.21,519.48" rightOfWay="edgePriority"/>
    <junction id="29" type="dead_end" x="-741.16" y="618.24" incLanes="69699_0" intLanes="" shape="-739.75,617.24 -742.57,619.23" rightOfWay="edgePriority"/>
    <junction id="31" type="dead_end" x="-854.93" y="490.16" incLanes="" intLanes="" shape="-855.07,491.90 -854.79,488.42" rightOfWay="edgePriority"/>
    <junction id="32" type="dead_end" x="-743.86" y="620.31" incLanes="" intLanes="" shape="-742.51,619.32 -745.21,621.30" rightOfWay="edgePriority"/>
    <junction id="33" type="dead_end" x="-658.53" y="373.62" incLanes="" intLanes="" shape="-660.26,373.94 -656.81,373.30" rightOfWay="edgePriority"/>
    <junction id="35" type="dead_end" x="-625.00" y="636.99" incLanes="" intLanes="" shape="-623.27,636.73 -626.72,637.26" rightOfWay="edgePriority"/>
    <junction id="45" type="dead_end" x="-616.40" y="514.29" incLanes="73892_0" intLanes="" shape="-616.13,512.56 -616.67,516.02" rightOfWay="edgePriority"/>
    <junction id="48" type="priority" x="-648.20" y="472.81" incLanes="69387_0 68987_0 69051_0" intLanes=":48_0_0 :48_1_0 :48_2_0" shape="-646.32,493.05 -639.36,492.32 -645.09,442.37 -652.03,443.33 -650.59,454.54 -649.66,463.94 -649.23,471.55 -649.32,477.36 -649.91,481.36 -651.00,483.57 -648.57,486.08 -647.71,486.26 -647.32,487.15 -646.96,488.58 -646.63,490.55">
        <request index="0" response="000" foes="100" cont="0"/>
        <request index="1" response="000" foes="000" cont="0"/>
        <request index="2" response="001" foes="001" cont="0"/>
    </junction>
    <junction id="49" type="priority" x="-679.79" y="505.22" incLanes="68915_0 69274_0" intLanes=":49_0_0 :49_1_0 :49_2_0" shape="-666.04,513.13 -665.31,506.17 -668.75,505.69 -669.82,505.42 -670.46,505.13 -670.67,504.83 -670.45,504.51 -672.54,501.71 -677.97,505.02 -682.48,506.24 -686.64,505.98 -691.05,504.84 -696.30,503.40 -702.96,502.29 -703.66,509.25">
        <request index="0" response="000" foes="000" cont="0"/>