<!-- generated on Tue Feb  9 22:21:05 2021 by Eclipse SUMO netconvert Version 1.8.0
<configuration xmlns:xsi="http://www.w3.org/2001/XMLSchema-instance" xsi:noNamespaceSchemaLocation="http://sumo.dlr.de/xsd/netconvertConfiguration.xsd">

    <input>
        <node-files value="./converted_scenarios/scenario-factory/BEL_Wervik-2_2_I-1-1/BEL_Wervik-2_2_I-1-1.nod.xml"/>
        <edge-files value="./converted_scenarios/scenario-factory/BEL_Wervik-2_2_I-1-1/BEL_Wervik-2_2_I-1-1.edg.xml"/>
        <connection-files value="./converted_scenarios/scenario-factory/BEL_Wervik-2_2_I-1-1/BEL_Wervik-2_2_I-1-1.con.xml"/>
        <tllogic-files value="./converted_scenarios/scenario-factory/BEL_Wervik-2_2_I-1-1/BEL_Wervik-2_2_I-1-1.tll.xml"/>
        <type-files value="/home/zen/commonroad-interactive-benchmarks/install/commonroad-map-tool/crmapconverter/sumo_map/templates/DEU.typ.xml"/>
    </input>

    <output>
        <output-file value="./converted_scenarios/scenario-factory/BEL_Wervik-2_2_I-1-1/BEL_Wervik-2_2_I-1-1.net.xml"/>
    </output>

    <processing>
        <geometry.remove.keep-edges.explicit value="true"/>
        <geometry.avoid-overlap value="true"/>
        <offset.disable-normalization value="true"/>
    </processing>

    <junctions>
        <no-turnarounds value="true"/>
        <junctions.internal-link-detail value="20"/>
    </junctions>

    <report>
        <aggregate-warnings value="5"/>
    </report>

    <random_number>
        <seed value="1234"/>
    </random_number>

</configuration>
--><net xmlns:xsi="http://www.w3.org/2001/XMLSchema-instance" version="1.6" junctionCornerDetail="5" junctionLinkDetail="20" limitTurnSpeed="5.50" xsi:noNamespaceSchemaLocation="http://sumo.dlr.de/xsd/net_file.xsd">

    <location netOffset="0.00,0.00" convBoundary="349.31,-331.39,562.25,-95.61" origBoundary="346.38,-331.39,562.25,-95.61" projParameter="!"/>

    <type id="highway.bridleway" priority="1" speed="2.78" allow="pedestrian" oneway="1" width="2.00"/>
    <type id="highway.bus_guideway" priority="1" speed="27.78" allow="bus" oneway="1"/>
    <type id="highway.cycleway" priority="1" speed="8.33" allow="bicycle" oneway="0" width="1.00"/>
    <type id="highway.footway" priority="1" speed="2.78" allow="pedestrian" oneway="1" width="2.00"/>
    <type id="highway.ford" priority="1" speed="2.78" allow="army" oneway="0"/>
    <type id="highway.living_street" priority="2" speed="2.78" disallow="tram rail_urban rail rail_electric rail_fast ship" oneway="0"/>
    <type id="highway.motorway" priority="14" speed="39.44" allow="private emergency authority army vip passenger hov taxi bus coach delivery truck trailer motorcycle evehicle custom1 custom2" oneway="1"/>
    <type id="highway.motorway_link" priority="9" speed="22.22" allow="private emergency authority army vip passenger hov taxi bus coach delivery truck trailer motorcycle evehicle custom1 custom2" oneway="1"/>
    <type id="highway.path" priority="1" speed="2.78" allow="pedestrian bicycle" oneway="0" width="2.00"/>
    <type id="highway.pedestrian" priority="1" speed="2.78" allow="pedestrian" oneway="1" width="2.00"/>
    <type id="highway.primary" priority="12" speed="27.78" disallow="pedestrian tram rail_urban rail rail_electric rail_fast ship" oneway="0"/>
    <type id="highway.primary_link" priority="7" speed="22.22" disallow="pedestrian tram rail_urban rail rail_electric rail_fast ship" oneway="0"/>
    <type id="highway.raceway" priority="15" speed="83.33" allow="vip" oneway="0"/>
    <type id="highway.residential" priority="3" speed="13.89" disallow="pedestrian tram rail_urban rail rail_electric rail_fast ship" oneway="0"/>
    <type id="highway.secondary" priority="11" speed="27.78" disallow="pedestrian tram rail_urban rail rail_electric rail_fast ship" oneway="0"/>
    <type id="highway.secondary_link" priority="6" speed="22.22" disallow="pedestrian tram rail_urban rail rail_electric rail_fast ship" oneway="0"/>
    <type id="highway.service" priority="1" speed="5.56" allow="pedestrian delivery bicycle" oneway="0"/>
    <type id="highway.stairs" priority="1" speed="1.39" allow="pedestrian" oneway="1" width="2.00"/>
    <type id="highway.step" priority="1" speed="1.39" allow="pedestrian" oneway="1" width="2.00"/>
    <type id="highway.steps" priority="1" speed="1.39" allow="pedestrian" oneway="1" width="2.00"/>
    <type id="highway.tertiary" priority="10" speed="22.22" disallow="pedestrian tram rail_urban rail rail_electric rail_fast ship" oneway="0"/>
    <type id="highway.tertiary_link" priority="5" speed="22.22" disallow="pedestrian tram rail_urban rail rail_electric rail_fast ship" oneway="0"/>
    <type id="highway.track" priority="1" speed="5.56" allow="pedestrian motorcycle moped bicycle" oneway="0"/>
    <type id="highway.trunk" priority="13" speed="27.78" disallow="pedestrian bicycle tram rail_urban rail rail_electric rail_fast ship" oneway="0"/>
    <type id="highway.trunk_link" priority="8" speed="22.22" disallow="pedestrian bicycle tram rail_urban rail rail_electric rail_fast ship" oneway="0"/>
    <type id="highway.unclassified" priority="4" speed="13.89" disallow="pedestrian tram rail_urban rail rail_electric rail_fast ship" oneway="0"/>
    <type id="highway.unsurfaced" priority="1" speed="8.33" disallow="tram rail_urban rail rail_electric rail_fast ship" oneway="0"/>
    <type id="railway.highspeed" priority="21" speed="69.44" allow="rail_fast" oneway="1"/>
    <type id="railway.light_rail" priority="19" speed="27.78" allow="rail_urban" oneway="1"/>
    <type id="railway.preserved" priority="16" speed="27.78" allow="rail" oneway="1"/>
    <type id="railway.rail" priority="20" speed="44.44" allow="rail" oneway="1"/>
    <type id="railway.subway" priority="18" speed="27.78" allow="rail_urban" oneway="1"/>
    <type id="railway.tram" priority="17" speed="13.89" allow="tram" oneway="1"/>

    <edge id=":45_0" function="internal">
        <lane id=":45_0_0" index="0" disallow="pedestrian tram rail_urban rail rail_electric rail_fast ship" speed="36.11" length="39.62" width="3.50" shape="460.81,-229.76 460.28,-226.47 459.27,-222.36 457.16,-215.39 453.77,-205.61 448.64,-192.13"/>
    </edge>
    <edge id=":45_1" function="internal">
        <lane id=":45_1_0" index="0" disallow="pedestrian tram rail_urban rail rail_electric rail_fast ship" speed="12.66" length="38.16" width="3.50" shape="460.81,-229.76 460.41,-227.18 459.75,-224.71 458.75,-222.31 457.41,-220.09 456.57,-219.01 455.67,-218.04 454.68,-217.16 453.63,-216.36 452.50,-215.63 450.21,-214.49 447.79,-213.64 445.34,-213.07 442.85,-212.72 439.18,-212.53 435.52,-212.64 431.91,-212.98"/>
    </edge>
    <edge id=":45_2" function="internal">
        <lane id=":45_2_0" index="0" disallow="pedestrian tram rail_urban rail rail_electric rail_fast ship" speed="11.70" length="32.44" width="3.50" shape="432.34,-216.45 435.56,-216.14 438.80,-216.03 442.05,-216.18 444.19,-216.46 446.31,-216.92 448.37,-217.59 450.33,-218.51 451.25,-219.07 452.13,-219.71 452.95,-220.41 453.71,-221.18 454.40,-222.02 455.55,-223.85 456.41,-225.83 456.99,-227.92 457.33,-230.04"/>
    </edge>
    <edge id=":45_3" function="internal">
        <lane id=":45_3_0" index="0" disallow="pedestrian tram rail_urban rail rail_electric rail_fast ship" speed="11.45" length="35.79" width="3.50" shape="432.34,-216.45 435.01,-216.05 437.69,-215.46 440.35,-214.65 442.92,-213.54 444.20,-212.83 445.41,-212.01 446.56,-211.06 447.60,-209.99 448.53,-208.78 449.30,-207.46 449.89,-206.06 450.31,-204.61 450.55,-203.13 450.65,-201.66 450.61,-200.19 450.23,-197.40 449.54,-194.70 448.64,-192.13"/>
    </edge>
    <edge id=":45_4" function="internal">
        <lane id=":45_4_0" index="0" disallow="pedestrian tram rail_urban rail rail_electric rail_fast ship" speed="10.38" length="29.23" width="3.50" shape="445.38,-193.38 446.15,-195.59 446.72,-197.86 447.03,-200.17 447.05,-201.34 446.96,-202.51 446.76,-203.66 446.43,-204.78 445.96,-205.85 445.35,-206.86 444.63,-207.78 443.80,-208.60 442.89,-209.34 441.92,-209.98 440.89,-210.55 438.74,-211.46 436.50,-212.14 434.21,-212.63 431.91,-212.98"/>
    </edge>
    <edge id=":45_5" function="internal">
        <lane id=":45_5_0" index="0" disallow="pedestrian tram rail_urban rail rail_electric rail_fast ship" speed="36.11" length="38.62" width="3.50" shape="445.38,-193.38 450.44,-206.69 453.78,-216.29 455.85,-223.10 456.82,-227.05 457.33,-230.04"/>
    </edge>
    <edge id=":46_0" function="internal">
        <lane id=":46_0_0" index="0" disallow="pedestrian tram rail_urban rail rail_electric rail_fast ship" speed="11.21" length="28.53" width="3.50" shape="508.62,-139.08 506.55,-140.07 504.46,-140.88 502.32,-141.48 500.17,-141.82 498.00,-141.86 496.98,-141.76 495.94,-141.57 494.93,-141.29 493.95,-140.92 493.00,-140.47 492.08,-139.94 491.22,-139.35 489.55,-137.92 488.06,-136.29 486.73,-134.50 484.95,-131.54"/>
    </edge>
    <edge id=":46_1" function="internal">
        <lane id=":46_1_0" index="0" disallow="pedestrian tram rail_urban rail rail_electric rail_fast ship" speed="36.11" length="38.41" width="3.50" shape="508.62,-139.08 501.25,-142.93 474.70,-157.10"/>
    </edge>
    <edge id=":46_2" function="internal">
        <lane id=":46_2_0" index="0" disallow="pedestrian tram rail_urban rail rail_electric rail_fast ship" speed="36.11" length="38.34" width="3.50" shape="476.36,-160.18 502.88,-146.03 510.22,-142.19"/>
    </edge>
    <edge id=":46_3" function="internal">
        <lane id=":46_3_0" index="0" disallow="pedestrian tram rail_urban rail rail_electric rail_fast ship" speed="12.23" length="34.27" width="3.50" shape="476.36,-160.18 479.75,-158.11 481.85,-156.52 483.77,-154.72 485.45,-152.69 486.17,-151.60 486.81,-150.44 487.35,-149.24 487.78,-148.00 488.10,-146.73 488.31,-145.43 488.41,-144.11 488.31,-141.49 487.85,-138.90 487.11,-136.37 486.13,-133.93 484.95,-131.54"/>
    </edge>
    <edge id=":46_4" function="internal">
        <lane id=":46_4_0" index="0" disallow="pedestrian tram rail_urban rail rail_electric rail_fast ship" speed="11.23" length="28.70" width="3.50" shape="481.87,-133.18 482.89,-135.27 483.73,-137.37 484.37,-139.51 484.75,-141.68 484.84,-143.87 484.76,-144.90 484.59,-145.94 484.33,-146.97 483.98,-147.96 483.55,-148.93 483.03,-149.86 482.46,-150.73 481.05,-152.43 479.44,-153.94 477.66,-155.30 474.70,-157.10"/>
    </edge>
    <edge id=":46_5" function="internal">
        <lane id=":46_5_0" index="0" disallow="pedestrian tram rail_urban rail rail_electric rail_fast ship" speed="12.21" length="34.06" width="3.50" shape="481.87,-133.18 483.90,-136.58 485.47,-138.68 487.23,-140.61 489.22,-142.31 490.30,-143.05 491.44,-143.71 492.62,-144.26 493.85,-144.72 495.11,-145.07 496.40,-145.30 497.70,-145.43 500.31,-145.38 502.90,-144.97 505.42,-144.26 507.86,-143.32 510.22,-142.19"/>
    </edge>
    <edge id=":47_0" function="internal">
        <lane id=":47_0_0" index="0" disallow="pedestrian tram rail_urban rail rail_electric rail_fast ship" speed="33.07" length="35.94" width="3.50" shape="472.68,-303.87 469.90,-298.36 467.83,-293.67 466.02,-288.86 464.49,-283.96 463.29,-278.97 462.45,-273.91 462.06,-269.82"/>
    </edge>
    <edge id=":47_1" function="internal">
        <lane id=":47_1_0" index="0" disallow="pedestrian tram rail_urban rail rail_electric rail_fast ship" speed="12.30" length="33.64" width="3.50" shape="472.69,-303.87 472.06,-302.75 470.02,-299.63 468.42,-297.64 466.61,-295.80 464.56,-294.18 462.32,-292.85 461.08,-292.30 459.81,-291.86 458.52,-291.52 457.18,-291.29 454.58,-291.14 451.98,-291.35 449.45,-291.87 447.02,-292.63 444.67,-293.59"/>
    </edge>
    <edge id=":47_2" function="internal">
        <lane id=":47_2_0" index="0" disallow="pedestrian tram rail_urban rail rail_electric rail_fast ship" speed="11.31" length="28.28" width="3.50" shape="446.13,-296.77 448.14,-295.95 450.22,-295.30 452.35,-294.86 454.52,-294.69 456.70,-294.83 457.77,-295.02 458.82,-295.30 459.84,-295.66 460.84,-296.11 462.71,-297.22 464.40,-298.59 465.93,-300.14 467.29,-301.84 469.07,-304.57 469.59,-305.51"/>
    </edge>
    <edge id=":47_3" function="internal">
        <lane id=":47_3_0" index="0" disallow="pedestrian tram rail_urban rail rail_electric rail_fast ship" speed="14.41" length="33.62" width="3.50" shape="446.13,-296.77 449.33,-295.12 452.34,-293.14 454.19,-291.61 455.89,-289.91 457.42,-288.06 458.74,-286.05 459.84,-283.92 460.71,-281.68 461.37,-279.37 461.81,-277.01 462.12,-273.42 462.06,-269.82"/>
    </edge>
    <edge id=":47_4" function="internal">
        <lane id=":47_4_0" index="0" disallow="pedestrian tram rail_urban rail rail_electric rail_fast ship" speed="13.51" length="29.46" width="3.50" shape="458.56,-269.97 458.62,-273.25 458.35,-276.43 457.96,-278.48 457.40,-280.48 456.64,-282.42 455.70,-284.25 454.56,-285.98 453.25,-287.58 451.78,-289.05 450.18,-290.37 447.52,-292.13 444.67,-293.59"/>
    </edge>
    <edge id=":47_5" function="internal">
        <lane id=":47_5_0" index="0" disallow="pedestrian tram rail_urban rail rail_electric rail_fast ship" speed="33.78" length="37.50" width="3.50" shape="458.56,-269.97 458.98,-274.33 459.85,-279.62 461.11,-284.84 462.69,-289.95 464.58,-294.94 466.72,-299.83 469.59,-305.51"/>
    </edge>
    <edge id=":48_0" function="internal">
        <lane id=":48_0_0" index="0" disallow="pedestrian tram rail_urban rail rail_electric rail_fast ship" speed="12.15" length="29.25" width="3.50" shape="407.35,-217.93 405.15,-218.58 403.00,-219.04 400.84,-219.31 398.69,-219.36 396.57,-219.15 394.52,-218.67 392.56,-217.91 390.72,-216.88 389.01,-215.61 387.45,-214.13 386.04,-212.47 384.77,-210.69 383.09,-207.80"/>
    </edge>
    <edge id=":48_1" function="internal">
        <lane id=":48_1_0" index="0" disallow="pedestrian tram rail_urban rail rail_electric rail_fast ship" speed="36.11" length="38.27" width="3.50" shape="407.35,-217.92 404.32,-218.98 396.60,-221.97 386.19,-226.46 372.19,-232.97"/>
    </edge>
    <edge id=":48_2" function="internal">
        <lane id=":48_2_0" index="0" disallow="pedestrian tram rail_urban rail rail_electric rail_fast ship" speed="36.11" length="37.73" width="3.50" shape="373.71,-236.12 387.58,-229.68 397.88,-225.23 405.49,-222.28 408.37,-221.27"/>
    </edge>
    <edge id=":48_3" function="internal">
        <lane id=":48_3_0" index="0" disallow="pedestrian tram rail_urban rail rail_electric rail_fast ship" speed="12.09" length="34.37" width="3.50" shape="373.71,-236.12 377.06,-234.30 379.21,-232.82 381.21,-231.11 382.99,-229.16 383.80,-228.03 384.50,-226.86 385.10,-225.63 385.59,-224.35 385.96,-223.02 386.21,-221.67 386.33,-220.32 386.35,-218.93 386.09,-216.31 385.50,-213.75 384.67,-211.28 383.09,-207.80"/>
    </edge>
    <edge id=":48_4" function="internal">
        <lane id=":48_4_0" index="0" disallow="pedestrian tram rail_urban rail rail_electric rail_fast ship" speed="11.07" length="28.68" width="3.50" shape="379.98,-209.41 381.35,-212.42 382.06,-214.51 382.55,-216.66 382.77,-218.86 382.75,-219.96 382.65,-221.06 382.46,-222.14 382.16,-223.21 381.77,-224.24 381.29,-225.23 380.72,-226.18 380.07,-227.07 378.59,-228.71 376.91,-230.14 375.09,-231.39 372.19,-232.97"/>
    </edge>
    <edge id=":48_5" function="internal">
        <lane id=":48_5_0" index="0" disallow="pedestrian tram rail_urban rail rail_electric rail_fast ship" speed="13.09" length="34.16" width="3.50" shape="379.98,-209.41 381.89,-212.69 383.36,-214.75 385.01,-216.67 386.85,-218.41 388.88,-219.92 391.09,-221.15 393.45,-222.06 395.92,-222.64 398.44,-222.88 400.97,-222.83 403.48,-222.52 405.95,-221.99 408.37,-221.27"/>
    </edge>
    <edge id=":49_0" function="internal">
        <lane id=":49_0_0" index="0" disallow="pedestrian tram rail_urban rail rail_electric rail_fast ship" speed="11.06" length="28.95" width="3.50" shape="457.32,-166.52 456.30,-167.04 454.19,-168.00 452.05,-168.75 449.88,-169.26 447.66,-169.48 446.62,-169.46 445.55,-169.35 444.51,-169.14 443.50,-168.84 442.51,-168.45 441.56,-167.97 440.65,-167.40 439.79,-166.78 438.15,-165.26 436.69,-163.55 435.40,-161.68 433.70,-158.61"/>
    </edge>
    <edge id=":49_1" function="internal">
        <lane id=":49_1_0" index="0" disallow="pedestrian tram rail_urban rail rail_electric rail_fast ship" speed="12.49" length="32.51" width="3.50" shape="457.32,-166.52 454.21,-168.37 451.27,-170.51 449.43,-172.17 447.74,-174.01 446.27,-176.06 445.07,-178.32 444.21,-180.75 443.74,-183.28 443.66,-185.84 443.92,-188.36 444.49,-190.80 445.27,-193.12"/>
    </edge>
    <edge id=":49_2" function="internal">
        <lane id=":49_2_0" index="0" disallow="pedestrian tram rail_urban rail rail_electric rail_fast ship" speed="11.48" length="27.42" width="3.50" shape="448.54,-191.86 447.86,-189.87 447.40,-187.81 447.19,-185.71 447.27,-183.60 447.68,-181.54 448.41,-179.56 449.43,-177.71 450.68,-176.01 452.12,-174.47 453.70,-173.07 456.26,-171.21 458.98,-169.59"/>
    </edge>
    <edge id=":49_3" function="internal">
        <lane id=":49_3_0" index="0" disallow="pedestrian tram rail_urban rail rail_electric rail_fast ship" speed="36.11" length="36.42" width="3.50" shape="448.54,-191.86 444.59,-182.23 439.53,-170.83 433.70,-158.61"/>
    </edge>
    <edge id=":49_4" function="internal">
        <lane id=":49_4_0" index="0" disallow="pedestrian tram rail_urban rail rail_electric rail_fast ship" speed="36.11" length="36.13" width="3.50" shape="430.55,-160.14 436.34,-172.29 441.37,-183.60 445.27,-193.12"/>
    </edge>
    <edge id=":49_5" function="internal">
        <lane id=":49_5_0" index="0" disallow="pedestrian tram rail_urban rail rail_electric rail_fast ship" speed="12.07" length="34.70" width="3.50" shape="430.55,-160.14 432.51,-163.67 434.03,-165.87 435.76,-167.90 437.72,-169.70 438.79,-170.49 439.93,-171.19 441.12,-171.79 442.36,-172.28 443.64,-172.65 444.95,-172.90 446.27,-173.04 447.61,-173.06 450.26,-172.80 452.85,-172.19 455.37,-171.31 457.80,-170.21 458.98,-169.59"/>
    </edge>

    <edge id="4551" from="46" to="49" priority="3" type="highway.residential" spreadType="center" length="19.79" shape="488.48,-142.43 444.70,-171.89">
        <lane id="4551_0" index="0" disallow="pedestrian tram rail_urban rail rail_electric rail_fast ship" speed="36.11" length="19.79" width="3.50" customShape="1" shape="474.70,-157.10 466.02,-161.80 457.30,-166.52"/>
    </edge>
    <edge id="4552" from="49" to="46" priority="3" type="highway.residential" spreadType="center" length="19.80" shape="446.66,-174.80 490.44,-145.33">
        <lane id="4552_0" index="0" disallow="pedestrian tram rail_urban rail rail_electric rail_fast ship" speed="36.11" length="19.80" width="3.50" customShape="1" shape="458.98,-169.59 467.68,-164.88 476.39,-160.17"/>
    </edge>
    <edge id="4568" from="45" to="48" priority="3" type="highway.residential" spreadType="center" length="25.17" shape="445.82,-210.70 387.14,-219.19">
        <lane id="4568_0" index="0" disallow="pedestrian tram rail_urban rail rail_electric rail_fast ship" speed="36.11" length="25.17" width="3.50" customShape="1" shape="431.91,-212.98 424.09,-213.94 418.40,-214.89 413.29,-216.11 407.29,-217.94"/>
    </edge>
    <edge id="4569" from="48" to="45" priority="3" type="highway.residential" spreadType="center" length="24.51" shape="387.64,-222.66 446.32,-214.16">
        <lane id="4569_0" index="0" disallow="pedestrian tram rail_urban rail rail_electric rail_fast ship" speed="36.11" length="24.51" width="3.50" customShape="1" shape="408.37,-221.27 414.22,-219.48 419.14,-218.31 424.66,-217.40 432.34,-216.45"/>
    </edge>
    <edge id="4602" from="47" to="40" priority="3" type="highway.residential" spreadType="center" length="37.43" shape="457.67,-291.13 496.35,-329.79">
        <lane id="4602_0" index="0" disallow="pedestrian tram rail_urban rail rail_electric rail_fast ship" speed="36.11" length="37.43" width="3.50" customShape="1" shape="469.59,-305.51 472.32,-310.65 474.71,-314.74 476.86,-317.74 478.97,-320.09 480.93,-321.85 483.52,-323.66 486.29,-325.19 492.07,-327.76 496.35,-329.79"/>
    </edge>
    <edge id="4603" from="44" to="47" priority="3" type="highway.residential" spreadType="center" length="35.28" shape="497.93,-326.66 460.15,-288.66">
        <lane id="4603_0" index="0" disallow="pedestrian tram rail_urban rail rail_electric rail_fast ship" speed="36.11" length="35.28" width="3.50" customShape="1" shape="497.93,-326.66 493.74,-324.67 488.15,-322.20 485.59,-320.83 483.23,-319.20 481.47,-317.64 479.55,-315.49 477.57,-312.72 475.31,-308.83 472.68,-303.86"/>
    </edge>
    <edge id="4618" from="48" to="31" priority="3" type="highway.residential" spreadType="center" length="56.79" shape="389.02,-220.16 356.94,-157.39">
        <lane id="4618_0" index="0" disallow="pedestrian tram rail_urban rail rail_electric rail_fast ship" speed="36.11" length="56.79" width="3.50" customShape="1" shape="383.09,-207.80 370.02,-182.59 356.94,-157.39"/>
    </edge>
    <edge id="4619" from="35" to="48" priority="3" type="highway.residential" spreadType="center" length="56.78" shape="353.84,-159.00 385.90,-221.75">
        <lane id="4619_0" index="0" disallow="pedestrian tram rail_urban rail rail_electric rail_fast ship" speed="36.11" length="56.78" width="3.50" customShape="1" shape="353.84,-159.00 366.91,-184.20 379.98,-209.41"/>
    </edge>
    <edge id="4643" from="49" to="7" priority="3" type="highway.residential" spreadType="center" length="69.99" shape="447.26,-172.47 403.20,-95.61">
        <lane id="4643_0" index="0" disallow="pedestrian tram rail_urban rail rail_electric rail_fast ship" speed="36.11" length="69.99" width="3.50" customShape="1" shape="433.70,-158.61 413.60,-117.10 403.20,-95.61"/>
    </edge>
    <edge id="4644" from="23" to="49" priority="3" type="highway.residential" spreadType="center" length="69.99" shape="400.07,-97.17 444.23,-174.21">
        <lane id="4644_0" index="0" disallow="pedestrian tram rail_urban rail rail_electric rail_fast ship" speed="36.11" length="69.99" width="3.50" customShape="1" shape="400.07,-97.17 410.45,-118.62 430.57,-160.17"/>
    </edge>
    <edge id="4646" from="45" to="49" priority="3" type="highway.residential" spreadType="center" length="0.30" shape="447.82,-212.42 447.47,-173.22">
        <lane id="4646_0" index="0" disallow="pedestrian tram rail_urban rail rail_electric rail_fast ship" speed="36.11" length="0.30" width="3.50" customShape="1" shape="448.64,-192.13 448.59,-191.98 448.54,-191.85"/>
    </edge>
    <edge id="4647" from="49" to="45" priority="3" type="highway.residential" spreadType="center" length="0.30" shape="443.98,-173.25 444.32,-212.45">
        <lane id="4647_0" index="0" disallow="pedestrian tram rail_urban rail rail_electric rail_fast ship" speed="36.11" length="0.30" width="3.50" customShape="1" shape="445.27,-193.12 445.33,-193.26 445.38,-193.40"/>
    </edge>
    <edge id="4649" from="47" to="45" priority="3" type="highway.residential" spreadType="center" length="40.09" shape="460.68,-289.68 447.79,-212.15">
        <lane id="4649_0" index="0" disallow="pedestrian tram rail_urban rail rail_electric rail_fast ship" speed="36.11" length="40.09" width="3.50" customShape="1" shape="462.06,-269.82 461.77,-263.21 461.66,-245.42 461.39,-236.78 460.81,-229.76"/>
    </edge>
    <edge id="4650" from="45" to="47" priority="3" type="highway.residential" spreadType="center" length="40.01" shape="444.34,-212.72 457.23,-290.25">
        <lane id="4650_0" index="0" disallow="pedestrian tram rail_urban rail rail_electric rail_fast ship" speed="36.11" length="40.01" width="3.50" customShape="1" shape="457.33,-230.04 457.90,-237.05 458.16,-245.61 458.27,-263.38 458.56,-270.02"/>
    </edge>
    <edge id="4675" from="37" to="46" priority="3" type="highway.residential" spreadType="center" length="58.66" shape="560.63,-111.98 488.74,-142.28">
        <lane id="4675_0" index="0" disallow="pedestrian tram rail_urban rail rail_electric rail_fast ship" speed="36.11" length="58.66" width="3.50" customShape="1" shape="560.63,-111.98 534.62,-125.53 508.61,-139.09"/>
    </edge>
    <edge id="4676" from="46" to="24" priority="3" type="highway.residential" spreadType="center" length="58.67" shape="490.10,-145.51 562.25,-115.08">
        <lane id="4676_0" index="0" disallow="pedestrian tram rail_urban rail rail_electric rail_fast ship" speed="36.11" length="58.67" width="3.50" customShape="1" shape="510.22,-142.19 536.23,-128.64 562.25,-115.08"/>
    </edge>
    <edge id="4698" from="43" to="47" priority="3" type="highway.residential" spreadType="center" length="70.03" shape="385.74,-331.39 459.81,-291.45">
        <lane id="4698_0" index="0" disallow="pedestrian tram rail_urban rail rail_electric rail_fast ship" speed="36.11" length="70.03" width="3.50" customShape="1" shape="385.74,-331.39 390.86,-329.18 399.55,-325.19 406.27,-321.74 411.93,-318.45 416.97,-315.14 418.54,-313.88 420.95,-311.30 422.38,-309.89 426.10,-307.30 431.26,-304.16 437.48,-300.86 446.16,-296.76"/>
    </edge>
    <edge id="4699" from="47" to="39" priority="3" type="highway.residential" spreadType="center" length="70.00" shape="458.15,-288.37 384.28,-328.21">
        <lane id="4699_0" index="0" disallow="pedestrian tram rail_urban rail rail_electric rail_fast ship" speed="36.11" length="70.00" width="3.50" customShape="1" shape="444.67,-293.59 435.97,-297.70 429.66,-301.05 424.41,-304.23 420.55,-306.88 418.88,-308.41 416.50,-310.97 415.18,-312.12 410.25,-315.37 404.68,-318.62 398.04,-322.04 389.39,-326.00 384.28,-328.21"/>
    </edge>
    <edge id="4729" from="38" to="48" priority="3" type="highway.residential" spreadType="center" length="48.58" shape="352.47,-271.75 388.88,-221.91">
        <lane id="4729_0" index="0" disallow="pedestrian tram rail_urban rail rail_electric rail_fast ship" speed="36.11" length="48.58" width="3.50" customShape="1" shape="352.47,-271.75 351.45,-269.55 350.79,-267.21 350.09,-263.89 349.87,-261.47 349.94,-259.04 350.37,-256.66 351.12,-254.35 353.32,-248.95 354.41,-246.78 355.55,-245.22 357.00,-243.93 358.65,-242.91 360.87,-241.92 365.83,-239.93 373.73,-236.11"/>
    </edge>
    <edge id="4730" from="48" to="32" priority="3" type="highway.residential" spreadType="center" length="53.99" shape="386.03,-219.89 349.31,-273.23">
        <lane id="4730_0" index="0" disallow="pedestrian tram rail_urban rail rail_electric rail_fast ship" speed="36.11" length="53.99" width="3.50" customShape="1" shape="372.19,-232.97 363.91,-236.95 358.63,-239.07 356.20,-240.31 354.31,-241.63 352.64,-243.28 351.29,-245.20 350.06,-247.68 347.70,-253.53 346.90,-256.15 346.44,-258.91 346.38,-261.71 346.64,-264.46 347.41,-268.13 348.18,-270.78 349.31,-273.23"/>
    </edge>
    <edge id="4791" from="46" to="25" priority="3" type="highway.residential" spreadType="center" length="10.00" shape="491.06,-143.18 480.25,-122.71">
        <lane id="4791_0" index="0" disallow="pedestrian tram rail_urban rail rail_electric rail_fast ship" speed="36.11" length="10.00" width="3.50" customShape="1" shape="484.95,-131.54 482.61,-127.14 480.25,-122.71"/>
    </edge>
    <edge id="4792" from="36" to="46" priority="3" type="highway.residential" spreadType="center" length="10.01" shape="477.16,-124.36 487.98,-144.81">
        <lane id="4792_0" index="0" disallow="pedestrian tram rail_urban rail rail_electric rail_fast ship" speed="36.11" length="10.01" width="3.50" customShape="1" shape="477.16,-124.36 479.52,-128.79 481.87,-133.19"/>
    </edge>

    <junction id="23" type="dead_end" x="400.07" y="-97.17" incLanes="" intLanes="" shape="401.64,-96.41 398.49,-97.93" rightOfWay="edgePriority"/>
    <junction id="24" type="dead_end" x="562.25" y="-115.08" incLanes="4676_0" intLanes="" shape="563.05,-116.63 561.44,-113.53" rightOfWay="edgePriority"/>
    <junction id="25" type="dead_end" x="480.25" y="-122.71" incLanes="4791_0" intLanes="" shape="481.79,-121.89 478.70,-123.53" rightOfWay="edgePriority"/>
    <junction id="31" type="dead_end" x="356.94" y="-157.39" incLanes="4618_0" intLanes="" shape="358.50,-156.58 355.39,-158.19" rightOfWay="edgePriority"/>
    <junction id="32" type="dead_end" x="349.31" y="-273.23" incLanes="4730_0" intLanes="" shape="347.72,-273.96 350.90,-272.51" rightOfWay="edgePriority"/>
    <junction id="35" type="dead_end" x="353.84" y="-159.00" incLanes="" intLanes="" shape="355.39,-158.19 352.29,-159.80" rightOfWay="edgePriority"/>
    <junction id="36" type="dead_end" x="477.16" y="-124.36" incLanes="" intLanes="" shape="478.70,-123.53 475.62,-125.18" rightOfWay="edgePriority"/>
    <junction id="37" type="dead_end" x="560.63" y="-111.98" incLanes="" intLanes="" shape="561.44,-113.53 559.82,-110.43" rightOfWay="edgePriority"/>
    <junction id="38" type="dead_end" x="352.47" y="-271.75" incLanes="" intLanes="" shape="350.89,-272.49 354.06,-271.01" rightOfWay="edgePriority"/>
    <junction id="39" type="dead_end" x="384.28" y="-328.21" incLanes="4699_0" intLanes="" shape="383.58,-326.60 384.97,-329.81" rightOfWay="edgePriority"/>
    <junction id="40" type="dead_end" x="496.35" y="-329.79" incLanes="4602_0" intLanes="" shape="495.60,-331.37 497.10,-328.21" rightOfWay="edgePriority"/>
    <junction id="43" type="dead_end" x="385.74" y="-331.39" incLanes="" intLanes="" shape="385.05,-329.78 386.44,-332.99" rightOfWay="edgePriority"/>
    <junction id="44" type="dead_end" x="497.93" y="-326.66" incLanes="" intLanes="" shape="497.17,-328.24 498.68,-325.08" rightOfWay="edgePriority"/>
    <junction id="45" type="priority" x="446.07" y="-212.43" incLanes="4649_0 4569_0 4647_0" intLanes=":45_0_0 :45_1_0 :45_2_0 :45_3_0 :45_4_0 :45_5_0" shape="462.55,-229.61 455.58,-230.18 454.61,-225.77 452.49,-222.32 449.23,-219.84 444.82,-218.33 439.26,-217.77 432.56,-218.19 431.70,-211.24 437.02,-210.15 441.01,-208.35 443.68,-205.83 445.03,-202.61 445.05,-198.68 443.75,-194.03 450.27,-191.49 453.59,-199.41 456.32,-205.23 458.53,-210.07 460.26,-215.01 461.58,-221.16">
        <request index="0" response="000000" foes="001000" cont="0"/>