<routes>
	<vehicle depart="0.1" departLane="0" departPos="1.0" departSpeed="4.1917752" id="367" type="bicycle">
		<route edges=":47_1 4699"/>
	</vehicle>
	<vehicle depart="0.1" departLane="0" departPos="60.746344330154535" departSpeed="0.0" id="39" type="passenger">
		<route edges="4698 4602"/>
	</vehicle>
	<vehicle depart="0.1" departLane="0" departPos="8.963462405717337" departSpeed="12.895505" id="362" type="passenger">
		<route edges="4649 4568 4618"/>
	</vehicle>
	<vehicle depart="0.1" departLane="0" departPos="28.784549004418107" departSpeed="13.877022" id="364" type="passenger">
		<route edges=":47_0 4649 4646"/>
	</vehicle>
	<vehicle depart="0.1" departLane="0" departPos="21.061656087204916" departSpeed="5.2805252" id="368" type="passenger">
		<route edges="4603 4699"/>
	</vehicle>
	<vehicle depart="0.1" departLane="0" departPos="70.33253468631567" departSpeed="0.0" id="31" type="truck">
		<route edges="4698 4602"/>
	</vehicle>
</routes>
