<routes>
	<vehicle depart="0.1" departLane="0" departPos="2.5" departSpeed="3.1326668" id="310" type="passenger">
		<route edges=":51_3 62495"/>
	</vehicle>
	<vehicle depart="0.1" departLane="0" departPos="14.222159422611474" departSpeed="1.1745824" id="312" type="passenger">
		<route edges=":49_2 62266 62495"/>
	</vehicle>
	<vehicle depart="0.1" departLane="0" departPos="11.198323269300685" departSpeed="0.62474354" id="324" type="passenger">
		<route edges="62344 62270"/>
	</vehicle>
	<vehicle depart="0.1" departLane="0" departPos="24.000986958350904" departSpeed="2.2373542" id="335" type="passenger">
		<route edges=":49_4 62345 62435"/>
	</vehicle>
	<vehicle depart="0.1" departLane="0" departPos="26.254697402809388" departSpeed="14.738154" id="353" type="passenger">
		<route edges=":49_0 62270"/>
	</vehicle>
	<vehicle depart="0.1" departLane="0" departPos="11.00917485528853" departSpeed="8.4446111" id="357" type="passenger">
		<route edges="62499 62402"/>
	</vehicle>
	<vehicle depart="0.1" departLane="0" departPos="17.299086816020164" departSpeed="9.5756794" id="360" type="passenger">
		<route edges=":51_4 62267 62345 62435"/>
	</vehicle>
	<vehicle depart="0.1" departLane="0" departPos="30.796043535659475" departSpeed="9.9205674" id="363" type="passenger">
		<route edges=":51_5 62499 62402"/>
	</vehicle>
	<vehicle depart="0.1" departLane="0" departPos="49.473252744991136" departSpeed="11.560184" id="365" type="passenger">
		<route edges="62496 62499"/>
	</vehicle>
	<vehicle depart="0.1" departLane="0" departPos="12.65801763659912" departSpeed="0.12451191" id="338" type="motorcycle">
		<route edges=":49_4 62345"/>
	</vehicle>
</routes>
