<routes>
	<vehicle depart="0.1" departLane="0" departPos="43.64208355420236" departSpeed="5.1504035" id="1" type="passenger">
		<route edges="50201 50213 50197"/>
	</vehicle>
	<vehicle depart="0.1" departLane="0" departPos="87.1405918874471" departSpeed="2.6068126" id="2" type="passenger">
		<route edges="50195 50211 50199"/>
	</vehicle>
	<vehicle depart="0.1" departLane="0" departPos="118.13339909689414" departSpeed="3.4891483" id="4" type="passenger">
		<route edges="50205 50207 50197"/>
	</vehicle>
	<vehicle depart="0.1" departLane="0" departPos="126.13444769159128" departSpeed="4.8800558" id="5" type="passenger">
		<route edges="50205 50217 50199"/>
	</vehicle>
	<vehicle depart="0.1" departLane="0" departPos="35.64138114112683" departSpeed="1.669151" id="7" type="passenger">
		<route edges="50201 50213 50197"/>
	</vehicle>
</routes>
