<routes>
	<vehicle depart="0.1" departLane="0" departPos="16.87179280705803" departSpeed="0.11393823" id="32" type="passenger">
		<route edges="45187 44916"/>
	</vehicle>
	<vehicle depart="0.1" departLane="0" departPos="8.084663036098412" departSpeed="1.1041806" id="313" type="passenger">
		<route edges=":53_2 45184"/>
	</vehicle>
	<vehicle depart="0.1" departLane="0" departPos="49.721764448986654" departSpeed="0.015252375" id="314" type="passenger">
		<route edges="45314 44916"/>
	</vehicle>
	<vehicle depart="0.1" departLane="0" departPos="30.10401632260626" departSpeed="9.6591533" id="316" type="passenger">
		<route edges="45188 45191"/>
	</vehicle>
	<vehicle depart="0.1" departLane="0" departPos="34.49581082687101" departSpeed="0.0" id="322" type="passenger">
		<route edges="45187 44916"/>
	</vehicle>
	<vehicle depart="0.1" departLane="0" departPos="2.5" departSpeed="7.7707657" id="327" type="passenger">
		<route edges=":56_1 45057 44724"/>
	</vehicle>
	<vehicle depart="0.1" departLane="0" departPos="32.82534989845694" departSpeed="0.43441109" id="336" type="passenger">
		<route edges=":53_6 44916 44913"/>
	</vehicle>
	<vehicle depart="0.1" departLane="0" departPos="50.19537930831735" departSpeed="14.469963" id="341" type="passenger">
		<route edges="44917 45188 45057"/>
	</vehicle>
	<vehicle depart="0.1" departLane="0" departPos="7.377572779358227" departSpeed="1.8152586" id="33" type="motorcycle">
		<route edges="45187 44916"/>
	</vehicle>
	<vehicle depart="0.1" departLane="0" departPos="26.978529347505006" departSpeed="0.019176978" id="335" type="truck">
		<route edges="45187 44916"/>
	</vehicle>
</routes>
