<routes>
	<vehicle depart="0.1" departLane="0" departPos="1.0" departSpeed="6.1888156" id="38" type="bicycle">
		<route edges=":36_2 47728"/>
	</vehicle>
	<vehicle depart="0.1" departLane="0" departPos="15.50413743073186" departSpeed="5.8490707" id="310" type="bicycle">
		<route edges=":35_3 47673"/>
	</vehicle>
	<vehicle depart="0.1" departLane="0" departPos="52.493410227251275" departSpeed="0.040665407" id="32" type="passenger">
		<route edges="47674 47731"/>
	</vehicle>
	<vehicle depart="0.1" departLane="0" departPos="43.50627330774925" departSpeed="0.1838253" id="35" type="passenger">
		<route edges="47674 47731"/>
	</vehicle>
	<vehicle depart="0.1" departLane="0" departPos="6.25666349790991" departSpeed="2.4107869" id="311" type="passenger">
		<route edges="47732 47677"/>
	</vehicle>
	<vehicle depart="0.1" departLane="0" departPos="33.05180051236505" departSpeed="0.45414349" id="313" type="passenger">
		<route edges="47674 47731"/>
	</vehicle>
	<vehicle depart="0.1" departLane="0" departPos="8.67881145660667" departSpeed="6.9813547" id="319" type="passenger">
		<route edges=":35_2 47731 47728"/>
	</vehicle>
	<vehicle depart="0.1" departLane="0" departPos="59.818891681520384" departSpeed="0.47462962" id="323" type="passenger">
		<route edges="47674 47731"/>
	</vehicle>
	<vehicle depart="0.1" departLane="0" departPos="15.169930094972324" departSpeed="6.8056777" id="334" type="passenger">
		<route edges="47676 47731"/>
	</vehicle>
	<vehicle depart="0.1" departLane="0" departPos="72.65433552825802" departSpeed="0.81337796" id="30" type="truck">
		<route edges="47674 47677 47804"/>
	</vehicle>
</routes>
