<routes>
	<vehicle depart="0.1" departLane="0" departPos="72.46094217349895" departSpeed="0.052925213" id="320" type="passenger">
		<route edges="20941 21487"/>
	</vehicle>
	<vehicle depart="0.1" departLane="0" departPos="64.25769395509019" departSpeed="0.24802413" id="322" type="passenger">
		<route edges="20941 21487"/>
	</vehicle>
	<vehicle depart="0.1" departLane="0" departPos="56.58755574516657" departSpeed="0.21182862" id="324" type="passenger">
		<route edges="20941 21487"/>
	</vehicle>
	<vehicle depart="0.1" departLane="0" departPos="47.93585703374677" departSpeed="0.089241041" id="326" type="passenger">
		<route edges="20941 21487"/>
	</vehicle>
	<vehicle depart="0.1" departLane="0" departPos="40.26423427614413" departSpeed="0.53756304" id="328" type="passenger">
		<route edges="20941 21487"/>
	</vehicle>
	<vehicle depart="0.1" departLane="0" departPos="32.222272767884945" departSpeed="0.33921053" id="330" type="passenger">
		<route edges="20941 21487"/>
	</vehicle>
	<vehicle depart="0.1" departLane="0" departPos="24.936129101533645" departSpeed="0.5719514" id="333" type="passenger">
		<route edges="20941 21487"/>
	</vehicle>
	<vehicle depart="0.1" departLane="0" departPos="17.500522966022697" departSpeed="0.5819775" id="335" type="passenger">
		<route edges="20941 21487"/>
	</vehicle>
	<vehicle depart="0.1" departLane="0" departPos="5.060720991966974" departSpeed="1.1180774" id="338" type="passenger">
		<route edges="20941 21487"/>
	</vehicle>
</routes>
