<routes>
	<vehicle depart="0.1" departLane="0" departPos="44.86458395378135" departSpeed="0.26182542" id="34" type="passenger">
		<route edges="7197 7508"/>
	</vehicle>
	<vehicle depart="0.1" departLane="0" departPos="35.38919885461689" departSpeed="0.93735334" id="314" type="passenger">
		<route edges="7197 7508"/>
	</vehicle>
	<vehicle depart="0.1" departLane="0" departPos="13.757312303596212" departSpeed="0.28565082" id="320" type="passenger">
		<route edges=":35_1 7245"/>
	</vehicle>
	<vehicle depart="0.1" departLane="0" departPos="23.20033779214499" departSpeed="2.4468223" id="323" type="passenger">
		<route edges="7197 7508"/>
	</vehicle>
	<vehicle depart="0.1" departLane="0" departPos="28.86213746380006" departSpeed="13.10974" id="342" type="passenger">
		<route edges="7246 7198"/>
	</vehicle>
	<vehicle depart="0.1" departLane="0" departPos="23.314577308147364" departSpeed="9.4127342" id="348" type="passenger">
		<route edges="7246 7198"/>
	</vehicle>
	<vehicle depart="0.1" departLane="0" departPos="10.47079956251661" departSpeed="7.6361225" id="357" type="passenger">
		<route edges=":34_1 7246"/>
	</vehicle>
	<vehicle depart="0.1" departLane="0" departPos="4.737597833347045" departSpeed="7.0077875" id="338" type="motorcycle">
		<route edges="7508 6965"/>
	</vehicle>
	<vehicle depart="0.1" departLane="0" departPos="38.92196274797396" departSpeed="10.953992" id="355" type="motorcycle">
		<route edges=":34_1 7246 7198"/>
	</vehicle>
	<vehicle depart="0.1" departLane="0" departPos="57.28143867500807" departSpeed="0.36839027" id="31" type="truck">
		<route edges="7197 7245"/>
	</vehicle>
</routes>
