<!-- generated on Tue Feb  9 22:09:45 2021 by Eclipse SUMO netconvert Version 1.8.0
<configuration xmlns:xsi="http://www.w3.org/2001/XMLSchema-instance" xsi:noNamespaceSchemaLocation="http://sumo.dlr.de/xsd/netconvertConfiguration.xsd">

    <input>
        <node-files value="./converted_scenarios/scenario-factory/BEL_Nivelles-4_1_I-1-1/BEL_Nivelles-4_1_I-1-1.nod.xml"/>
        <edge-files value="./converted_scenarios/scenario-factory/BEL_Nivelles-4_1_I-1-1/BEL_Nivelles-4_1_I-1-1.edg.xml"/>
        <connection-files value="./converted_scenarios/scenario-factory/BEL_Nivelles-4_1_I-1-1/BEL_Nivelles-4_1_I-1-1.con.xml"/>
        <tllogic-files value="./converted_scenarios/scenario-factory/BEL_Nivelles-4_1_I-1-1/BEL_Nivelles-4_1_I-1-1.tll.xml"/>
        <type-files value="/home/zen/commonroad-interactive-benchmarks/install/commonroad-map-tool/crmapconverter/sumo_map/templates/DEU.typ.xml"/>
    </input>

    <output>
        <output-file value="./converted_scenarios/scenario-factory/BEL_Nivelles-4_1_I-1-1/BEL_Nivelles-4_1_I-1-1.net.xml"/>
    </output>

    <processing>
        <geometry.remove.keep-edges.explicit value="true"/>
        <geometry.avoid-overlap value="true"/>
        <offset.disable-normalization value="true"/>
    </processing>

    <junctions>
        <no-turnarounds value="true"/>
        <junctions.internal-link-detail value="20"/>
    </junctions>

    <report>
        <aggregate-warnings value="5"/>
    </report>

    <random_number>
        <seed value="1234"/>
    </random_number>

</configuration>
--><net xmlns:xsi="http://www.w3.org/2001/XMLSchema-instance" version="1.6" junctionCornerDetail="5" junctionLinkDetail="20" limitTurnSpeed="5.50" xsi:noNamespaceSchemaLocation="http://sumo.dlr.de/xsd/net_file.xsd">

    <location netOffset="0.00,0.00" convBoundary="709.37,463.32,870.03,691.58" origBoundary="708.97,463.32,870.03,691.58" projParameter="!"/>

    <type id="highway.bridleway" priority="1" speed="2.78" allow="pedestrian" oneway="1" width="2.00"/>
    <type id="highway.bus_guideway" priority="1" speed="27.78" allow="bus" oneway="1"/>
    <type id="highway.cycleway" priority="1" speed="8.33" allow="bicycle" oneway="0" width="1.00"/>
    <type id="highway.footway" priority="1" speed="2.78" allow="pedestrian" oneway="1" width="2.00"/>
    <type id="highway.ford" priority="1" speed="2.78" allow="army" oneway="0"/>
    <type id="highway.living_street" priority="2" speed="2.78" disallow="tram rail_urban rail rail_electric rail_fast ship" oneway="0"/>
    <type id="highway.motorway" priority="14" speed="39.44" allow="private emergency authority army vip passenger hov taxi bus coach delivery truck trailer motorcycle evehicle custom1 custom2" oneway="1"/>
    <type id="highway.motorway_link" priority="9" speed="22.22" allow="private emergency authority army vip passenger hov taxi bus coach delivery truck trailer motorcycle evehicle custom1 custom2" oneway="1"/>
    <type id="highway.path" priority="1" speed="2.78" allow="pedestrian bicycle" oneway="0" width="2.00"/>
    <type id="highway.pedestrian" priority="1" speed="2.78" allow="pedestrian" oneway="1" width="2.00"/>
    <type id="highway.primary" priority="12" speed="27.78" disallow="pedestrian tram rail_urban rail rail_electric rail_fast ship" oneway="0"/>
    <type id="highway.primary_link" priority="7" speed="22.22" disallow="pedestrian tram rail_urban rail rail_electric rail_fast ship" oneway="0"/>
    <type id="highway.raceway" priority="15" speed="83.33" allow="vip" oneway="0"/>
    <type id="highway.residential" priority="3" speed="13.89" disallow="pedestrian tram rail_urban rail rail_electric rail_fast ship" oneway="0"/>
    <type id="highway.secondary" priority="11" speed="27.78" disallow="pedestrian tram rail_urban rail rail_electric rail_fast ship" oneway="0"/>
    <type id="highway.secondary_link" priority="6" speed="22.22" disallow="pedestrian tram rail_urban rail rail_electric rail_fast ship" oneway="0"/>
    <type id="highway.service" priority="1" speed="5.56" allow="pedestrian delivery bicycle" oneway="0"/>
    <type id="highway.stairs" priority="1" speed="1.39" allow="pedestrian" oneway="1" width="2.00"/>
    <type id="highway.step" priority="1" speed="1.39" allow="pedestrian" oneway="1" width="2.00"/>
    <type id="highway.steps" priority="1" speed="1.39" allow="pedestrian" oneway="1" width="2.00"/>
    <type id="highway.tertiary" priority="10" speed="22.22" disallow="pedestrian tram rail_urban rail rail_electric rail_fast ship" oneway="0"/>
    <type id="highway.tertiary_link" priority="5" speed="22.22" disallow="pedestrian tram rail_urban rail rail_electric rail_fast ship" oneway="0"/>
    <type id="highway.track" priority="1" speed="5.56" allow="pedestrian motorcycle moped bicycle" oneway="0"/>
    <type id="highway.trunk" priority="13" speed="27.78" disallow="pedestrian bicycle tram rail_urban rail rail_electric rail_fast ship" oneway="0"/>
    <type id="highway.trunk_link" priority="8" speed="22.22" disallow="pedestrian bicycle tram rail_urban rail rail_electric rail_fast ship" oneway="0"/>
    <type id="highway.unclassified" priority="4" speed="13.89" disallow="pedestrian tram rail_urban rail rail_electric rail_fast ship" oneway="0"/>
    <type id="highway.unsurfaced" priority="1" speed="8.33" disallow="tram rail_urban rail rail_electric rail_fast ship" oneway="0"/>
    <type id="railway.highspeed" priority="21" speed="69.44" allow="rail_fast" oneway="1"/>
    <type id="railway.light_rail" priority="19" speed="27.78" allow="rail_urban" oneway="1"/>
    <type id="railway.preserved" priority="16" speed="27.78" allow="rail" oneway="1"/>
    <type id="railway.rail" priority="20" speed="44.44" allow="rail" oneway="1"/>
    <type id="railway.subway" priority="18" speed="27.78" allow="rail_urban" oneway="1"/>
    <type id="railway.tram" priority="17" speed="13.89" allow="tram" oneway="1"/>

    <edge id=":33_0" function="internal">
        <lane id=":33_0_0" index="0" disallow="pedestrian tram rail_urban rail rail_electric rail_fast ship" speed="11.21" length="28.96" width="3.50" shape="792.97,636.28 792.74,632.95 792.36,630.75 791.74,628.61 790.86,626.56 790.31,625.60 789.68,624.68 788.98,623.81 788.20,623.02 787.35,622.29 786.44,621.65 785.48,621.08 783.45,620.17 781.31,619.55 779.12,619.16 776.90,618.98 774.67,618.96"/>
    </edge>
    <edge id=":33_1" function="internal">
        <lane id=":33_1_0" index="0" disallow="pedestrian tram rail_urban rail rail_electric rail_fast ship" speed="36.11" length="40.19" width="3.50" shape="814.67,615.58 812.60,615.99 806.46,616.93 798.25,617.78 788.00,618.47 774.67,618.96"/>
    </edge>
    <edge id=":33_2" function="internal">
        <lane id=":33_2_0" index="0" disallow="pedestrian tram rail_urban rail rail_electric rail_fast ship" speed="12.27" length="34.18" width="3.50" shape="794.48,596.87 794.46,600.70 794.21,603.33 793.70,605.92 792.89,608.43 792.35,609.64 791.73,610.80 791.01,611.91 790.19,612.94 789.29,613.91 788.30,614.78 787.24,615.57 786.12,616.26 783.72,617.37 781.20,618.15 778.61,618.65 775.99,618.91 774.67,618.96"/>
    </edge>
    <edge id=":33_3" function="internal">
        <lane id=":33_3_0" index="0" disallow="pedestrian tram rail_urban rail rail_electric rail_fast ship" speed="11.27" length="28.65" width="3.50" shape="774.59,615.46 775.71,615.42 777.98,615.19 780.18,614.77 782.29,614.12 784.27,613.19 785.15,612.64 786.00,612.01 786.78,611.31 787.50,610.54 788.15,609.71 788.72,608.82 789.22,607.87 789.65,606.91 790.33,604.79 790.75,602.60 790.97,600.36 790.98,596.89"/>
    </edge>
    <edge id=":33_4" function="internal">
        <lane id=":33_4_0" index="0" disallow="pedestrian tram rail_urban rail rail_electric rail_fast ship" speed="36.11" length="39.54" width="3.50" shape="774.59,615.46 787.75,614.98 797.87,614.30 805.94,613.46 811.96,612.55 813.95,612.16"/>
    </edge>
    <edge id=":33_5" function="internal">
        <lane id=":33_5_0" index="0" disallow="pedestrian tram rail_urban rail rail_electric rail_fast ship" speed="12.21" length="34.57" width="3.50" shape="774.59,615.46 777.15,615.49 779.74,615.70 782.32,616.16 784.88,616.91 787.31,617.99 788.52,618.70 789.63,619.50 790.68,620.40 791.65,621.39 792.52,622.45 793.29,623.59 793.97,624.80 795.02,627.24 795.75,629.79 796.20,632.38 796.46,636.22"/>
    </edge>
    <edge id=":34_0" function="internal">
        <lane id=":34_0_0" index="0" disallow="pedestrian tram rail_urban rail rail_electric rail_fast ship" speed="26.70" length="53.06" width="3.50" shape="738.13,520.67 731.36,529.62 726.05,537.12 722.14,543.10 719.01,548.36 716.63,552.87 714.94,556.58 713.87,559.45 713.03,562.40 712.68,564.41 712.57,566.44"/>
    </edge>
    <edge id=":34_1" function="internal">
        <lane id=":34_1_0" index="0" disallow="pedestrian tram rail_urban rail rail_electric rail_fast ship" speed="36.11" length="47.81" width="3.50" shape="712.74,518.63 712.47,552.20 712.57,566.44"/>
    </edge>
    <edge id=":34_2" function="internal">
        <lane id=":34_2_0" index="0" disallow="pedestrian tram rail_urban rail rail_electric rail_fast ship" speed="36.11" length="47.91" width="3.46" shape="709.07,566.50 708.97,552.21 709.24,518.59"/>
    </edge>
    <edge id=":34_3" function="internal">
        <lane id=":34_3_0" index="0" disallow="pedestrian tram rail_urban rail rail_electric rail_fast ship" speed="27.29" length="55.41" width="3.50" shape="709.06,566.50 709.19,564.20 709.56,561.96 710.43,558.78 711.55,555.72 713.29,551.80 715.74,547.09 718.96,541.63 722.98,535.44 728.42,527.72 735.36,518.53"/>
    </edge>
    <edge id=":35_0" function="internal">
        <lane id=":35_0_0" index="0" disallow="pedestrian tram rail_urban rail rail_electric rail_fast ship" speed="11.19" length="28.74" width="3.50" shape="731.32,620.03 729.02,620.17 726.77,620.46 724.58,620.96 722.49,621.68 720.53,622.67 719.67,623.24 718.83,623.90 718.07,624.62 717.36,625.41 716.73,626.26 716.17,627.16 715.70,628.09 714.91,630.16 714.40,632.31 714.11,634.53 714.03,638.01"/>
    </edge>
    <edge id=":35_1" function="internal">
        <lane id=":35_1_0" index="0" disallow="pedestrian tram rail_urban rail rail_electric rail_fast ship" speed="12.18" length="34.36" width="3.50" shape="731.32,620.03 728.76,620.01 726.19,619.79 723.61,619.33 721.08,618.57 718.66,617.47 717.47,616.75 716.36,615.94 715.33,615.04 714.38,614.05 713.53,612.98 712.77,611.85 712.10,610.64 711.07,608.21 710.35,605.68 709.91,603.10 709.64,599.31"/>
    </edge>
    <edge id=":35_2" function="internal">
        <lane id=":35_2_0" index="0" disallow="pedestrian tram rail_urban rail rail_electric rail_fast ship" speed="11.18" length="28.78" width="3.50" shape="713.14,599.22 713.37,602.53 713.75,604.71 714.35,606.85 715.21,608.88 715.75,609.85 716.37,610.77 717.06,611.63 717.82,612.43 718.66,613.16 719.55,613.81 720.50,614.39 722.51,615.31 724.63,615.94 726.81,616.33 729.02,616.52 731.23,616.54"/>
    </edge>
    <edge id=":35_3" function="internal">
        <lane id=":35_3_0" index="0" disallow="pedestrian tram rail_urban rail rail_electric rail_fast ship" speed="36.11" length="38.80" width="3.50" shape="713.14,599.22 713.17,601.26 714.03,638.01"/>
    </edge>
    <edge id=":35_4" function="internal">
        <lane id=":35_4_0" index="0" disallow="pedestrian tram rail_urban rail rail_electric rail_fast ship" speed="36.11" length="38.81" width="3.50" shape="710.53,638.11 709.67,601.32 709.64,599.31"/>
    </edge>
    <edge id=":35_5" function="internal">
        <lane id=":35_5_0" index="0" disallow="pedestrian tram rail_urban rail rail_electric rail_fast ship" speed="12.19" length="34.33" width="3.50" shape="710.53,638.11 710.63,634.12 710.97,631.50 711.58,628.93 712.51,626.47 713.11,625.29 713.80,624.17 714.59,623.11 715.47,622.12 716.43,621.22 717.46,620.40 718.56,619.68 720.92,618.48 723.41,617.62 725.98,617.04 728.60,616.69 731.23,616.54"/>
    </edge>

    <edge id="6961" from="33" to="24" priority="3" type="highway.residential" spreadType="center" length="50.85" shape="795.84,615.96 797.24,687.06">
        <lane id="6961_0" index="0" disallow="pedestrian tram rail_urban rail rail_electric rail_fast ship" speed="36.11" length="50.85" width="3.50" customShape="1" shape="796.46,636.22 796.85,661.64 797.24,687.06"/>
    </edge>
    <edge id="6962" from="30" to="33" priority="3" type="highway.residential" spreadType="center" length="50.87" shape="793.74,687.14 792.35,616.03">
        <lane id="6962_0" index="0" disallow="pedestrian tram rail_urban rail rail_electric rail_fast ship" speed="36.11" length="50.87" width="3.50" customShape="1" shape="793.74,687.14 793.35,661.70 792.97,636.28"/>
    </edge>
    <edge id="6964" from="31" to="33" priority="3" type="highway.residential" spreadType="center" length="62.05" shape="825.83,545.64 795.69,616.76">
        <lane id="6964_0" index="0" disallow="pedestrian tram rail_urban rail rail_electric rail_fast ship" speed="36.11" length="62.05" width="3.50" customShape="1" shape="825.83,545.64 819.13,552.22 812.86,558.57 808.55,563.35 805.13,567.60 802.28,571.66 799.97,575.48 797.95,579.45 796.25,583.58 795.35,586.41 794.77,589.33 794.45,592.78 794.48,596.87"/>
    </edge>
    <edge id="6965" from="33" to="23" priority="3" type="highway.residential" spreadType="center" length="64.85" shape="792.47,615.39 823.38,543.15">
        <lane id="6965_0" index="0" disallow="pedestrian tram rail_urban rail rail_electric rail_fast ship" speed="36.11" length="64.85" width="3.50" customShape="1" shape="790.98,596.89 790.96,592.70 791.28,588.99 791.90,585.82 792.83,582.74 794.60,578.38 796.70,574.17 799.09,570.14 802.05,565.87 805.60,561.42 810.06,556.44 816.50,549.89 823.38,543.15"/>
    </edge>
    <edge id="7057" from="34" to="21" priority="3" type="highway.residential" spreadType="center" length="5.22" shape="717.95,535.62 709.37,513.37">
        <lane id="7057_0" index="0" disallow="pedestrian tram rail_urban rail rail_electric rail_fast ship" speed="36.11" length="5.22" width="3.46" customShape="1" shape="709.24,518.59 709.24,518.46 709.37,513.37"/>
    </edge>
    <edge id="7058" from="29" to="34" priority="3" type="highway.residential" spreadType="center" length="5.26" shape="712.81,513.38 721.15,534.38">
        <lane id="7058_0" index="0" disallow="pedestrian tram rail_urban rail rail_electric rail_fast ship" speed="36.11" length="5.26" width="3.42" customShape="1" shape="712.81,513.38 712.74,518.38 712.74,518.51 712.74,518.64"/>
    </edge>
    <edge id="7197" from="17" to="35" priority="3" type="highway.residential" spreadType="center" length="53.52" shape="712.07,691.58 716.57,618.38">
        <lane id="7197_0" index="0" disallow="pedestrian tram rail_urban rail rail_electric rail_fast ship" speed="36.11" length="53.52" width="3.50" customShape="1" shape="712.07,691.58 711.30,664.83 710.53,638.08"/>
    </edge>
    <edge id="7198" from="35" to="8" priority="3" type="highway.residential" spreadType="center" length="53.49" shape="720.06,618.60 715.57,691.48">
        <lane id="7198_0" index="0" disallow="pedestrian tram rail_urban rail rail_electric rail_fast ship" speed="36.11" length="53.49" width="3.50" customShape="1" shape="714.03,638.01 714.80,664.73 715.57,691.48"/>
    </edge>
    <edge id="7245" from="35" to="34" priority="3" type="highway.residential" spreadType="center" length="32.86" shape="716.56,618.54 717.77,534.86">
        <lane id="7245_0" index="0" disallow="pedestrian tram rail_urban rail rail_electric rail_fast ship" speed="36.11" length="32.86" width="3.50" customShape="1" shape="709.64,599.31 709.35,582.89 709.07,566.45"/>
    </edge>
    <edge id="7246" from="34" to="35" priority="3" type="highway.residential" spreadType="center" length="32.81" shape="721.27,534.91 720.06,618.59">
        <lane id="7246_0" index="0" disallow="pedestrian tram rail_urban rail rail_electric rail_fast ship" speed="36.11" length="32.81" width="3.50" customShape="1" shape="712.57,566.44 712.85,582.83 713.14,599.25"/>
    </edge>
    <edge id="7419" from="34" to="20" priority="3" type="highway.residential" spreadType="center" length="70.00" shape="718.16,533.77 778.39,463.32">
        <lane id="7419_0" index="0" disallow="pedestrian tram rail_urban rail rail_electric rail_fast ship" speed="36.11" length="70.00" width="3.50" customShape="1" shape="735.36,518.53 757.74,489.49 772.88,470.10 778.39,463.32"/>
    </edge>
    <edge id="7420" from="28" to="34" priority="3" type="highway.residential" spreadType="center" length="70.00" shape="781.16,465.46 720.82,536.05">
        <lane id="7420_0" index="0" disallow="pedestrian tram rail_urban rail rail_electric rail_fast ship" speed="36.11" length="70.00" width="3.50" customShape="1" shape="781.16,465.46 775.65,472.25 760.51,491.62 738.13,520.67"/>
    </edge>
    <edge id="7505" from="33" to="22" priority="3" type="highway.residential" spreadType="center" length="57.82" shape="793.59,614.36 868.48,593.46">
        <lane id="7505_0" index="0" disallow="pedestrian tram rail_urban rail rail_electric rail_fast ship" speed="36.11" length="57.82" width="3.50" customShape="1" shape="813.95,612.16 815.91,611.74 825.22,609.57 835.87,606.58 844.02,603.98 851.09,601.36 858.95,598.00 868.48,593.46"/>
    </edge>
    <edge id="7506" from="32" to="33" priority="3" type="highway.residential" spreadType="center" length="58.72" shape="870.03,596.60 794.53,617.73">
        <lane id="7506_0" index="0" disallow="pedestrian tram rail_urban rail rail_electric rail_fast ship" speed="36.11" length="58.72" width="3.50" customShape="1" shape="870.03,596.60 860.38,601.20 852.38,604.61 845.18,607.29 836.90,609.92 826.10,612.96 816.67,615.16 814.65,615.58"/>
    </edge>
    <edge id="7508" from="35" to="33" priority="3" type="highway.residential" spreadType="center" length="43.37" shape="718.22,616.79 794.04,614.29">
        <lane id="7508_0" index="0" disallow="pedestrian tram rail_urban rail rail_electric rail_fast ship" speed="36.11" length="43.37" width="3.50" customShape="1" shape="731.23,616.54 752.91,616.00 774.59,615.46"/>
    </edge>
    <edge id="7509" from="33" to="35" priority="3" type="highway.residential" spreadType="center" length="43.36" shape="794.15,617.79 718.33,620.28">
        <lane id="7509_0" index="0" disallow="pedestrian tram rail_urban rail rail_electric rail_fast ship" speed="36.11" length="43.36" width="3.50" customShape="1" shape="774.67,618.96 752.99,619.50 731.32,620.03"/>
    </edge>

    <junction id="17" type="dead_end" x="712.07" y="691.58" incLanes="" intLanes="" shape="713.82,691.53 710.32,691.64" rightOfWay="edgePriority"/>
    <junction id="20" type="dead_end" x="778.39" y="463.32" incLanes="7419_0" intLanes="" shape="777.03,462.22 779.75,464.42" rightOfWay="edgePriority"/>
    <junction id="21" type="dead_end" x="709.37" y="513.37" incLanes="7057_0" intLanes="" shape="707.64,513.33 711.10,513.42" rightOfWay="edgePriority"/>
    <junction id="22" type="dead_end" x="868.48" y="593.46" incLanes="7505_0" intLanes="" shape="867.72,591.88 869.23,595.04" rightOfWay="edgePriority"/>
    <junction id="23" type="dead_end" x="823.38" y="543.15" incLanes="6965_0" intLanes="" shape="822.15,541.90 824.60,544.40" rightOfWay="edgePriority"/>
    <junction id="24" type="dead_end" x="797.24" y="687.06" incLanes="6961_0" intLanes="" shape="798.99,687.04 795.49,687.09" rightOfWay="edgePriority"/>
    <junction id="28" type="dead_end" x="781.16" y="465.46" incLanes="" intLanes="" shape="779.80,464.36 782.52,466.56" rightOfWay="edgePriority"/>
    <junction id="29" type="dead_end" x="712.81" y="513.38" incLanes="" intLanes="" shape="711.10,513.36 714.52,513.41" rightOfWay="edgePriority"/>
    <junction id="30" type="dead_end" x="793.74" y="687.14" incLanes="" intLanes="" shape="795.49,687.12 791.99,687.17" rightOfWay="edgePriority"/>
    <junction id="31" type="dead_end" x="825.83" y="545.64" incLanes="" intLanes="" shape="824.61,544.40 827.05,546.89" rightOfWay="edgePriority"/>
    <junction id="32" type="dead_end" x="870.03" y="596.60" incLanes="" intLanes="" shape="869.28,595.02 870.79,598.17" rightOfWay="edgePriority"/>
    <junction id="33" type="priority" x="794.09" y="616.04" incLanes="6962_0 7506_0 6964_0 7508_0" intLanes=":33_0_0 :33_1_0 :33_2_0 :33_3_0 :33_4_0 :33_5_0" shape="791.22,636.30 798.21,636.20 798.62,631.43 799.98,627.31 802.30,623.83 805.59,621.00 809.83,618.82 815.04,617.29 813.58,610.45 808.31,611.09 803.99,610.57 800.62,608.88 798.20,606.04 796.74,602.03 796.23,596.85 789.23,596.90 788.85,601.94 787.65,606.08 785.61,609.33 782.75,611.68 779.06,613.15 774.54,613.72 774.72,620.71 779.69,621.03 783.78,622.27 786.97,624.41 789.28,627.46 790.69,631.43">
        <request index="0" response="000010" foes="000110" cont="0"/>
        <request index="1" response="000000" foes="100101" cont="0"/>
        <request index="2" response="110011" foes="110011" cont="0"/>
        <request index="3" response="000000" foes="000000" cont="0"/>
        <request index="4" response="000000" foes="000100" cont="0"/>
        <request index="5" response="000010" foes="000110" cont="0"/>
    </junction>
    <junction id="34" type="priority" x="719.52" y="534.89" incLanes="7420_0 7058_0 7245_0" intLanes=":34_0_0 :34_1_0 :34_2_0 :34_3_0" shape="739.52,521.74 733.97,517.46 730.22,521.30 725.93,524.02 721.67,525.37 717.98,525.10 715.39,522.95 714.45,518.66 707.50,518.57 707.32,566.53 714.31,566.41 714.97,555.79 717.26,548.12 721.03,542.12 726.11,536.56 732.33,530.19">
        <request index="0" response="0010" foes="0010" cont="0"/>
        <request index="1" response="0000" foes="1001" cont="0"/>
        <request index="2" response="0000" foes="0000" cont="0"/>
        <request index="3" response="0010" foes="0010" cont="0"/>
    </junction>
    <junction id="35" type="priority" x="718.31" y="618.53" incLanes="7509_0 7246_0 7197_0" intLanes=":35_0_0 :35_1_0 :35_2_0 :35_3_0 :35_4_0 :35_5_0" shape="731.36,621.78 731.19,614.79 726.28,614.47 722.26,613.23 719.10,611.09 716.82,608.05 715.42,604.09 714.89,599.22 707.89,599.35 708.79,638.16 715.78,637.96 716.09,633.13 717.31,629.15 719.45,626.03 722.50,623.76 726.47,622.34">
        <request index="0" response="001000" foes="001000" cont="0"/>
        <request index="1" response="111000" foes="111000" cont="0"/>
        <request index="2" response="000000" foes="100000" cont="0"/>
        <request index="3" response="000000" foes="100011" cont="0"/>
        <request index="4" response="000000" foes="000010" cont="0"/>
        <request index="5" response="001100" foes="001110" cont="0"/>
    </junction>
    <junction id="8" type="dead_end" x="715.57" y="691.48" incLanes="7198_0" intLanes="" shape="717.32,691.43 713.82,691.53" rightOfWay="edgePriority"/>

    <connection from="6962" to="7509" fromLane="0" toLane="0" contPos="-4.00" shape="792.97,636.28 792.74,632.95 792.36,630.75 791.74,628.61 790.86,626.56 790.31,625.60 789.68,624.68 788.98,623.81 788.20,623.02 787.35,622.29 786.44,621.65 785.48,621.08 783.45,620.17 781.31,619.55 779.12,619.16 776.90,618.98 774.67,618.96" via=":33_0_0" dir="r" state="m"/>
    <connection from="6964" to="7509" fromLane="0" toLane="0" contPos="-4.00" shape="794.48,596.74 794.46,600.70 794.21,603.33 793.70,605.92 792.89,608.43 792.35,609.64 791.73,610.80 791.01,611.91 790.19,612.94 789.29,613.91 788.30,614.78 787.24,615.57 786.12,616.26 783.72,617.37 781.20,618.15 778.61,618.65 775.99,618.91 774.67,618.96" via=":33_2_0" dir="l" state="m"/>
    <connection from="7058" to="7246" fromLane="0" toLane="0" contPos="-4.00" shape="712.74,518.63 712.47,552.20 712.57,566.44" via=":34_1_0" dir="s" state="M"/>
    <connection from="7197" to="7245" fromLane="0" toLane="0" contPos="-4.00" shape="710.53,638.08 709.67,601.32 709.64,599.31" via=":35_4_0" dir="s" state="M"/>
    <connection from="7197" to="7508" fromLane="0" toLane="0" contPos="-4.00" shape="710.53,638.08 710.63,634.12 710.97,631.50 711.58,628.93 712.51,626.47 713.11,625.29 713.80,624.17 714.59,623.11 715.47,622.12 716.43,621.22 717.46,620.40 718.56,619.68 720.92,618.48 723.41,617.62 725.98,617.04 728.60,616.69 731.23,616.54" via=":35_5_0" dir="l" state="m"/>
    <connection from="7245" to="7057" fromLane="0" toLane="0" contPos="-4.00" shape="709.07,566.45 708.97,552.21 709.24,518.59" via=":34_2_0" dir="s" state="M"/>
    <connection from="7245" to="7419" fromLane="0" toLane="0" contPos="-4.00" shape="709.07,566.45 709.19,564.20 709.56,561.96 710.43,558.78 711.55,555.72 713.29,551.80 715.74,547.09 718.96,541.63 722.98,535.44 728.42,527.72 735.36,518.53" via=":34_3_0" dir="L" state="m"/>
    <connection from="7246" to="7508" fromLane="0" toLane="0" contPos="-4.00" shape="713.14,599.22 713.37,602.53 713.75,604.71 714.35,606.85 715.21,608.88 715.75,609.85 716.37,610.77 717.06,611.63 717.82,612.43 718.66,613.16 719.55,613.81 720.50,614.39 722.51,615.31 724.63,615.94 726.81,616.33 729.02,616.52 731.23,616.54" via=":35_2_0" dir="r" state="M"/>
    <connection from="7246" to="7198" fromLane="0" toLane="0" contPos="-4.00" shape="713.14,599.22 713.17,601.26 714.03,638.01" via=":35_3_0" dir="s" state="M"/>
    <connection from="7420" to="7246" fromLane="0" toLane="0" contPos="-4.00" shape="738.13,520.67 731.36,529.62 726.05,537.12 722.14,543.10 719.01,548.36 716.63,552.87 714.94,556.58 713.87,559.45 713.03,562.40 712.68,564.41 712.57,566.44" via=":34_0_0" dir="s" state="m"/>
    <connection from="7506" to="7509" fromLane="0" toLane="0" contPos="-4.00" shape="814.65,615.58 812.60,615.99 806.46,616.93 798.25,617.78 788.00,618.47 774.67,618.96" via=":33_1_0" dir="s" state="M"/>
    <connection from="7508" to="6965" fromLane="0" toLane="0" contPos="-4.00" shape="774.59,615.46 775.71,615.42 777.98,615.19 780.18,614.77 782.29,614.12 784.27,613.19 785.15,612.64 786.00,612.01 786.78,611.31 787.50,610.54 788.15,609.71 788.72,608.82 789.22,607.87 789.65,606.91 790.33,604.79 790.75,602.60 790.97,600.36 790.98,596.89" via=":33_3_0" dir="r" state="M"/>
    <connection from="7508" to="7505" fromLane="0" toLane="0" contPos="-4.00" shape="774.59,615.46 787.75,614.98 797.87,614.30 805.94,613.46 811.96,612.55 813.95,612.16" via=":33_4_0" dir="s" state="M"/>
    <connection from="7508" to="6961" fromLane="0" toLane="0" contPos="-4.00" shape="774.59,615.46 777.15,615.49 779.74,615.70 782.32,616.16 784.88,616.91 787.31,617.99 788.52,618.70 789.63,619.50 790.68,620.40 791.65,621.39 792.52,622.45 793.29,623.59 793.97,624.80 795.02,627.24 795.75,629.79 796.20,632.38 796.46,636.22" via=":33_5_0" dir="l" state="m"/>
    <connection from="7509" to="7198" fromLane="0" toLane="0" contPos="-4.00" shape="731.32,620.03 729.02,620.17 726.77,620.46 724.58,620.96 722.49,621.68 720.53,622.67 719.67,623.24 718.83,623.90 718.07,624.62 717.36,625.41 716.73,626.26 716.17,627.16 715.70,628.09 714.91,630.16 714.40,632.31 714.11,634.53 714.03,638.01" via=":35_0_0" dir="r" state="m"/>
    <connection from="7509" to="7245" fromLane="0" toLane="0" contPos="-4.00" shape="731.32,620.03 728.76,620.01 726.19,619.79 723.61,619.33 721.08,618.57 718.66,617.47 717.47,616.75 716.36,615.94 715.33,615.04 714.38,614.05 713.53,612.98 712.77,611.85 712.10,610.64 711.07,608.21 710.35,605.68 709.91,603.10 709.64,599.31" via=":35_1_0" dir="l" state="m"/>

    <connection from=":33_0" to="7509" fromLane="0" toLane="0" dir="r" state="M"/>
    <connection from=":33_1" to="7509" fromLane="0" toLane="0" dir="s" state="M"/>
    <connection from=":33_2" to="7509" fromLane="0" toLane="0" dir="l" state="M"/>
    <connection from=":33_3" to="6965" fromLane="0" toLane="0" dir="r" state="M"/>
    <connection from=":33_4" to="7505" fromLane="0" toLane="0" dir="s" state="M"/>
    <connection from=":33_5" to="6961" fromLane="0" toLane="0" dir="l" state="M"/>
    <connection from=":34_0" to="7246" fromLane="0" toLane="0" dir="s" state="M"/>
    <connection from=":34_1" to="7246" fromLane="0" toLane="0" dir="s" state="M"/>
    <connection from=":34_2" to="7057" fromLane="0" toLane="0" dir="s" state="M"/>
    <connection from=":34_3" to="7419" fromLane="0" toLane="0" dir="L" state="M"/>
    <connection from=":35_0" to="7198" fromLane="0" toLane="0" dir="r" state="M"/>
    <connection from=":35_1" to="7245" fromLane="0" toLane="0" dir="l" state="M"/>
    <connection from=":35_2" to="7508" fromLane="0" toLane="0" dir="r" state="M"/>
    <connection from=":35_3" to="7198" fromLane="0" toLane="0" dir="s" state="M"/>
    <connection from=":35_4" to="7245" fromLane="0" toLane="0" dir="s" state="M"/>
    <connection from=":35_5" to="7508" fromLane="0" toLane="0" dir="l" state="M"/>

</net>