<!-- generated on Tue Feb  9 22:08:55 2021 by Eclipse SUMO netconvert Version 1.8.0
<configuration xmlns:xsi="http://www.w3.org/2001/XMLSchema-instance" xsi:noNamespaceSchemaLocation="http://sumo.dlr.de/xsd/netconvertConfiguration.xsd">

    <input>
        <node-files value="./converted_scenarios/scenario-factory/BEL_Putte-10_3_I-1-1/BEL_Putte-10_3_I-1-1.nod.xml"/>
        <edge-files value="./converted_scenarios/scenario-factory/BEL_Putte-10_3_I-1-1/BEL_Putte-10_3_I-1-1.edg.xml"/>
        <connection-files value="./converted_scenarios/scenario-factory/BEL_Putte-10_3_I-1-1/BEL_Putte-10_3_I-1-1.con.xml"/>
        <tllogic-files value="./converted_scenarios/scenario-factory/BEL_Putte-10_3_I-1-1/BEL_Putte-10_3_I-1-1.tll.xml"/>
        <type-files value="/home/zen/commonroad-interactive-benchmarks/install/commonroad-map-tool/crmapconverter/sumo_map/templates/DEU.typ.xml"/>
    </input>

    <output>
        <output-file value="./converted_scenarios/scenario-factory/BEL_Putte-10_3_I-1-1/BEL_Putte-10_3_I-1-1.net.xml"/>
    </output>

    <processing>
        <geometry.remove.keep-edges.explicit value="true"/>
        <geometry.avoid-overlap value="true"/>
        <offset.disable-normalization value="true"/>
    </processing>

    <junctions>
        <no-turnarounds value="true"/>
        <junctions.internal-link-detail value="20"/>
    </junctions>

    <report>
        <aggregate-warnings value="5"/>
    </report>

    <random_number>
        <seed value="1234"/>
    </random_number>

</configuration>
--><net xmlns:xsi="http://www.w3.org/2001/XMLSchema-instance" version="1.6" junctionCornerDetail="5" junctionLinkDetail="20" limitTurnSpeed="5.50" xsi:noNamespaceSchemaLocation="http://sumo.dlr.de/xsd/net_file.xsd">

    <location netOffset="0.00,0.00" convBoundary="-214.20,-51.83,-52.73,73.63" origBoundary="-214.20,-51.83,-52.73,73.63" projParameter="!"/>

    <type id="highway.bridleway" priority="1" speed="2.78" allow="pedestrian" oneway="1" width="2.00"/>
    <type id="highway.bus_guideway" priority="1" speed="27.78" allow="bus" oneway="1"/>
    <type id="highway.cycleway" priority="1" speed="8.33" allow="bicycle" oneway="0" width="1.00"/>
    <type id="highway.footway" priority="1" speed="2.78" allow="pedestrian" oneway="1" width="2.00"/>
    <type id="highway.ford" priority="1" speed="2.78" allow="army" oneway="0"/>
    <type id="highway.living_street" priority="2" speed="2.78" disallow="tram rail_urban rail rail_electric rail_fast ship" oneway="0"/>
    <type id="highway.motorway" priority="14" speed="39.44" allow="private emergency authority army vip passenger hov taxi bus coach delivery truck trailer motorcycle evehicle custom1 custom2" oneway="1"/>
    <type id="highway.motorway_link" priority="9" speed="22.22" allow="private emergency authority army vip passenger hov taxi bus coach delivery truck trailer motorcycle evehicle custom1 custom2" oneway="1"/>
    <type id="highway.path" priority="1" speed="2.78" allow="pedestrian bicycle" oneway="0" width="2.00"/>
    <type id="highway.pedestrian" priority="1" speed="2.78" allow="pedestrian" oneway="1" width="2.00"/>
    <type id="highway.primary" priority="12" speed="27.78" disallow="pedestrian tram rail_urban rail rail_electric rail_fast ship" oneway="0"/>
    <type id="highway.primary_link" priority="7" speed="22.22" disallow="pedestrian tram rail_urban rail rail_electric rail_fast ship" oneway="0"/>
    <type id="highway.raceway" priority="15" speed="83.33" allow="vip" oneway="0"/>
    <type id="highway.residential" priority="3" speed="13.89" disallow="pedestrian tram rail_urban rail rail_electric rail_fast ship" oneway="0"/>
    <type id="highway.secondary" priority="11" speed="27.78" disallow="pedestrian tram rail_urban rail rail_electric rail_fast ship" oneway="0"/>
    <type id="highway.secondary_link" priority="6" speed="22.22" disallow="pedestrian tram rail_urban rail rail_electric rail_fast ship" oneway="0"/>
    <type id="highway.service" priority="1" speed="5.56" allow="pedestrian delivery bicycle" oneway="0"/>
    <type id="highway.stairs" priority="1" speed="1.39" allow="pedestrian" oneway="1" width="2.00"/>
    <type id="highway.step" priority="1" speed="1.39" allow="pedestrian" oneway="1" width="2.00"/>
    <type id="highway.steps" priority="1" speed="1.39" allow="pedestrian" oneway="1" width="2.00"/>
    <type id="highway.tertiary" priority="10" speed="22.22" disallow="pedestrian tram rail_urban rail rail_electric rail_fast ship" oneway="0"/>
    <type id="highway.tertiary_link" priority="5" speed="22.22" disallow="pedestrian tram rail_urban rail rail_electric rail_fast ship" oneway="0"/>
    <type id="highway.track" priority="1" speed="5.56" allow="pedestrian motorcycle moped bicycle" oneway="0"/>
    <type id="highway.trunk" priority="13" speed="27.78" disallow="pedestrian bicycle tram rail_urban rail rail_electric rail_fast ship" oneway="0"/>
    <type id="highway.trunk_link" priority="8" speed="22.22" disallow="pedestrian bicycle tram rail_urban rail rail_electric rail_fast ship" oneway="0"/>
    <type id="highway.unclassified" priority="4" speed="13.89" disallow="pedestrian tram rail_urban rail rail_electric rail_fast ship" oneway="0"/>
    <type id="highway.unsurfaced" priority="1" speed="8.33" disallow="tram rail_urban rail rail_electric rail_fast ship" oneway="0"/>
    <type id="railway.highspeed" priority="21" speed="69.44" allow="rail_fast" oneway="1"/>
    <type id="railway.light_rail" priority="19" speed="27.78" allow="rail_urban" oneway="1"/>
    <type id="railway.preserved" priority="16" speed="27.78" allow="rail" oneway="1"/>
    <type id="railway.rail" priority="20" speed="44.44" allow="rail" oneway="1"/>
    <type id="railway.subway" priority="18" speed="27.78" allow="rail_urban" oneway="1"/>
    <type id="railway.tram" priority="17" speed="13.89" allow="tram" oneway="1"/>

    <edge id=":11_0" function="internal">
        <lane id=":11_0_0" index="0" disallow="pedestrian tram rail_urban rail rail_electric rail_fast ship" speed="36.11" length="2.97" width="3.50" shape="-113.18,-7.26 -111.31,-9.57"/>
    </edge>
    <edge id=":15_0" function="internal">
        <lane id=":15_0_0" index="0" disallow="pedestrian tram rail_urban rail rail_electric rail_fast ship" speed="36.11" length="2.96" width="3.50" shape="-108.59,-7.38 -110.45,-5.08"/>
    </edge>
    <edge id=":17_0" function="internal">
        <lane id=":17_0_0" index="0" disallow="pedestrian tram rail_urban rail rail_electric rail_fast ship" speed="36.11" length="2.80" width="3.45" shape="-143.98,23.91 -142.39,21.60"/>
    </edge>
    <edge id=":21_0" function="internal">
        <lane id=":21_0_0" index="0" disallow="pedestrian tram rail_urban rail rail_electric rail_fast ship" speed="9.34" length="16.66" width="3.40" shape="-120.33,14.88 -123.14,14.00 -125.97,13.23 -127.88,12.79 -128.85,12.62 -129.82,12.48 -130.79,12.40 -131.77,12.41 -132.73,12.61 -134.83,15.92"/>
    </edge>
    <edge id=":21_1" function="internal">
        <lane id=":21_1_0" index="0" disallow="pedestrian tram rail_urban rail rail_electric rail_fast ship" speed="36.11" length="28.76" width="3.50" shape="-120.33,14.88 -134.01,10.41 -147.67,5.95"/>
    </edge>
    <edge id=":21_2" function="internal">
        <lane id=":21_2_0" index="0" disallow="pedestrian tram rail_urban rail rail_electric rail_fast ship" speed="27.41" length="19.18" width="3.40" shape="-120.02,4.66 -126.96,8.44 -129.01,9.34 -130.91,10.45 -131.70,11.05 -132.42,11.73 -133.02,12.45 -134.83,15.92"/>
    </edge>
    <edge id=":21_3" function="internal">
        <lane id=":21_3_0" index="0" disallow="pedestrian tram rail_urban rail rail_electric rail_fast ship" speed="15.15" length="28.97" width="3.50" shape="-120.02,4.66 -127.14,8.41 -129.53,8.84 -131.95,8.98 -135.45,8.79 -138.89,8.27 -143.33,7.25 -147.67,5.95"/>
    </edge>
    <edge id=":21_4" function="internal">
        <lane id=":21_4_0" index="0" disallow="pedestrian tram rail_urban rail rail_electric rail_fast ship" speed="14.46" length="26.69" width="3.50" shape="-146.59,2.62 -142.57,3.83 -138.49,4.79 -135.38,5.28 -132.24,5.49 -130.14,5.39 -128.08,5.04 -121.27,1.21"/>
    </edge>
    <edge id=":21_5" function="internal">
        <lane id=":21_5_0" index="0" disallow="pedestrian tram rail_urban rail rail_electric rail_fast ship" speed="36.11" length="28.75" width="3.50" shape="-146.59,2.62 -132.92,7.09 -119.26,11.55"/>
    </edge>
    <edge id=":21_6" function="internal">
        <lane id=":21_6_0" index="0" disallow="pedestrian tram rail_urban rail rail_electric rail_fast ship" speed="9.14" length="21.55" width="3.40" shape="-146.59,2.62 -142.55,4.07 -139.93,5.19 -137.40,6.52 -136.20,7.30 -135.08,8.18 -134.09,9.22 -133.37,10.45 -133.13,11.84 -134.83,15.92"/>
    </edge>
    <edge id=":21_7" function="internal">
        <lane id=":21_7_0" index="0" disallow="pedestrian tram rail_urban rail rail_electric rail_fast ship" speed="8.19" length="17.05" width="3.50" shape="-138.56,15.42 -136.44,11.77 -136.83,11.19 -137.44,10.64 -138.22,10.06 -139.11,9.50 -140.07,8.97 -142.16,7.99 -144.33,7.12 -147.67,5.95"/>
    </edge>
    <edge id=":21_8" function="internal">
        <lane id=":21_8_0" index="0" disallow="pedestrian tram rail_urban rail rail_electric rail_fast ship" speed="31.16" length="23.08" width="3.50" shape="-138.56,15.42 -135.97,10.57 -135.14,9.51 -134.17,8.57 -133.11,7.73 -130.80,6.33 -128.34,5.22 -121.27,1.21"/>
    </edge>
    <edge id=":21_9" function="internal">
        <lane id=":21_9_0" index="0" disallow="pedestrian tram rail_urban rail rail_electric rail_fast ship" speed="10.82" length="22.69" width="3.50" shape="-138.56,15.42 -135.37,10.25 -133.77,9.48 -132.34,9.18 -131.00,9.10 -129.73,9.14 -128.47,9.27 -126.08,9.68 -122.62,10.53 -119.26,11.55"/>
    </edge>
    <edge id=":9_0" function="internal">
        <lane id=":9_0_0" index="0" disallow="pedestrian tram rail_urban rail rail_electric rail_fast ship" speed="36.11" length="2.81" width="3.50" shape="-139.50,23.58 -141.10,25.89"/>
    </edge>

    <edge id="11412" from="11" to="12" priority="3" type="highway.residential" spreadType="center" length="53.88">
        <lane id="11412_0" index="0" disallow="pedestrian tram rail_urban rail rail_electric rail_fast ship" speed="36.11" length="53.88" width="3.50" customShape="1" shape="-111.31,-9.57 -95.07,-30.11 -77.89,-51.83"/>
    </edge>
    <edge id="11413" from="16" to="15" priority="3" type="highway.residential" spreadType="center" length="53.90">
        <lane id="11413_0" index="0" disallow="pedestrian tram rail_urban rail rail_electric rail_fast ship" speed="36.11" length="53.90" width="3.50" customShape="1" shape="-75.15,-49.65 -92.32,-27.94 -108.59,-7.38"/>
    </edge>
    <edge id="11416" from="15" to="21" priority="3" type="highway.residential" spreadType="center" length="13.69" shape="-109.50,-6.22 -131.13,10.56">
        <lane id="11416_0" index="0" disallow="pedestrian tram rail_urban rail rail_electric rail_fast ship" speed="36.11" length="13.69" width="3.50" customShape="1" shape="-110.45,-5.08 -113.06,-1.96 -116.15,1.31 -118.66,3.62 -120.02,4.66"/>
    </edge>
    <edge id="11564" from="21" to="3" priority="3" type="highway.residential" spreadType="center" length="70.01" shape="-132.63,10.78 -214.20,-15.84">
        <lane id="11564_0" index="0" disallow="pedestrian tram rail_urban rail rail_electric rail_fast ship" speed="36.11" length="70.01" width="3.50" customShape="1" shape="-147.67,5.95 -209.37,-14.26 -214.20,-15.84"/>
    </edge>
    <edge id="11565" from="14" to="21" priority="3" type="highway.residential" spreadType="center" length="70.00" shape="-213.11,-19.17 -131.54,7.46">
        <lane id="11565_0" index="0" disallow="pedestrian tram rail_urban rail rail_electric rail_fast ship" speed="36.11" length="70.00" width="3.50" customShape="1" shape="-213.11,-19.17 -208.28,-17.58 -146.59,2.62"/>
    </edge>
    <edge id="11567" from="13" to="21" priority="3" type="highway.residential" spreadType="center" length="70.02" shape="-53.80,36.64 -132.70,10.76">
        <lane id="11567_0" index="0" disallow="pedestrian tram rail_urban rail rail_electric rail_fast ship" speed="36.11" length="70.02" width="3.50" customShape="1" shape="-53.80,36.64 -120.35,14.87"/>
    </edge>
    <edge id="11568" from="21" to="6" priority="3" type="highway.residential" spreadType="center" length="70.00" shape="-131.61,7.43 -52.73,33.31">
        <lane id="11568_0" index="0" disallow="pedestrian tram rail_urban rail rail_electric rail_fast ship" speed="36.11" length="70.00" width="3.50" customShape="1" shape="-119.26,11.55 -52.73,33.31"/>
    </edge>
    <edge id="11656" from="17" to="21" priority="3" type="highway.residential" spreadType="center" length="7.27" shape="-143.15,22.78 -133.46,8.02">
        <lane id="11656_0" index="0" disallow="pedestrian tram rail_urban rail rail_electric rail_fast ship" speed="36.11" length="7.27" width="3.45" customShape="1" shape="-142.39,21.60 -139.74,17.50 -138.56,15.42"/>
    </edge>
    <edge id="11659" from="18" to="17" priority="3" type="highway.residential" spreadType="center" length="68.59">
        <lane id="11659_0" index="0" disallow="pedestrian tram rail_urban rail rail_electric rail_fast ship" speed="36.11" length="68.59" width="3.50" customShape="1" shape="-193.18,71.59 -179.12,58.24 -162.36,43.17 -155.43,36.64 -149.84,30.89 -145.53,26.00 -143.98,23.91"/>
    </edge>
    <edge id="11660" from="9" to="10" priority="3" type="highway.residential" spreadType="center" length="68.59">
        <lane id="11660_0" index="0" disallow="pedestrian tram rail_urban rail rail_electric rail_fast ship" speed="36.11" length="68.59" width="3.50" customShape="1" shape="-141.10,25.89 -142.73,28.10 -147.11,33.09 -152.75,38.92 -159.73,45.51 -176.52,60.61 -190.24,73.63"/>
    </edge>
    <edge id="12609" from="21" to="9" priority="3" type="highway.residential" spreadType="center" length="8.98" shape="-130.61,9.89 -140.27,24.76">
        <lane id="12609_0" index="0" disallow="pedestrian tram rail_urban rail rail_electric rail_fast ship" speed="36.11" length="8.98" width="3.40" customShape="1" shape="-134.83,15.92 -136.72,19.28 -139.50,23.58"/>
    </edge>
    <edge id="12702" from="21" to="11" priority="3" type="highway.residential" spreadType="center" length="11.73" shape="-133.27,7.80 -112.24,-8.40">
        <lane id="12702_0" index="0" disallow="pedestrian tram rail_urban rail rail_electric rail_fast ship" speed="36.11" length="11.73" width="3.50" customShape="1" shape="-121.27,1.21 -120.71,0.77 -118.42,-1.36 -115.57,-4.40 -113.18,-7.26"/>
    </edge>

    <junction id="10" type="dead_end" x="-190.24" y="73.63" incLanes="11660_0" intLanes="" shape="-189.04,74.90 -191.45,72.36" rightOfWay="edgePriority"/>
    <junction id="11" type="priority" x="-112.24" y="-8.40" incLanes="12702_0" intLanes=":11_0_0" shape="-109.94,-8.48 -112.69,-10.65 -114.53,-8.38 -111.84,-6.15" rightOfWay="edgePriority">
        <request index="0" response="0" foes="0" cont="0"/>
    </junction>
    <junction id="12" type="dead_end" x="-77.89" y="-51.83" incLanes="11412_0" intLanes="" shape="-79.27,-52.92 -76.52,-50.75" rightOfWay="edgePriority"/>
    <junction id="13" type="dead_end" x="-53.80" y="36.64" incLanes="" intLanes="" shape="-53.26,34.97 -54.35,38.30" rightOfWay="edgePriority"/>
    <junction id="14" type="dead_end" x="-213.11" y="-19.17" incLanes="" intLanes="" shape="-213.66,-17.50 -212.57,-20.83" rightOfWay="edgePriority"/>
    <junction id="15" type="priority" x="-109.50" y="-6.22" incLanes="11413_0" intLanes=":15_0_0" shape="-107.21,-6.29 -109.96,-8.46 -111.80,-6.20 -109.11,-3.96" rightOfWay="edgePriority">
        <request index="0" response="0" foes="0" cont="0"/>
    </junction>
    <junction id="16" type="dead_end" x="-75.15" y="-49.65" incLanes="" intLanes="" shape="-76.53,-50.74 -73.78,-48.57" rightOfWay="edgePriority"/>
    <junction id="17" type="priority" x="-143.15" y="22.78" incLanes="11659_0" intLanes=":17_0_0" shape="-140.94,22.54 -143.84,20.66 -145.39,22.87 -142.58,24.94" rightOfWay="edgePriority">
        <request index="0" response="0" foes="0" cont="0"/>
    </junction>
    <junction id="18" type="dead_end" x="-193.18" y="71.59" incLanes="" intLanes="" shape="-191.98,72.86 -194.39,70.32" rightOfWay="edgePriority"/>
    <junction id="21" type="priority" x="-132.12" y="9.11" incLanes="11567_0 11416_0 11565_0 11656_0" intLanes=":21_0_0 :21_1_0 :21_2_0 :21_3_0 :21_4_0 :21_5_0 :21_6_0 :21_7_0 :21_8_0 :21_9_0" shape="-120.89,16.54 -118.72,9.88 -120.42,8.96 -120.72,8.41 -120.65,7.80 -120.21,7.12 -119.39,6.39 -121.89,-0.52 -124.59,1.43 -127.86,2.72 -131.64,3.32 -135.93,3.22 -140.73,2.44 -146.04,0.96 -148.22,7.61 -145.16,8.73 -142.77,9.85 -141.07,10.99 -140.03,12.13 -139.68,13.28 -140.00,14.44 -137.13,16.39 -136.38,15.20 -133.29,16.65 -131.03,15.07 -129.20,14.86 -126.90,15.03 -124.13,15.59">
        <request index="0" response="0000000000" foes="0001000100" cont="0"/>
        <request index="1" response="0000000000" foes="1111001100" cont="0"/>
        <request index="2" response="0001100011" foes="1001100011" cont="0"/>
        <request index="3" response="1111100010" foes="1111100010" cont="0"/>
        <request index="4" response="0000000000" foes="0100000000" cont="0"/>
        <request index="5" response="0000000000" foes="1100001100" cont="0"/>
        <request index="6" response="0000000011" foes="1100001111" cont="0"/>
        <request index="7" response="0000000010" foes="0000001010" cont="0"/>
        <request index="8" response="0001110010" foes="0001111010" cont="0"/>
        <request index="9" response="0001100110" foes="0001101110" cont="0"/>
    </junction>
    <junction id="3" type="dead_end" x="-214.20" y="-15.84" incLanes="11564_0" intLanes="" shape="-214.74,-14.17 -213.65,-17.50" rightOfWay="edgePriority"/>
    <junction id="6" type="dead_end" x="-52.73" y="33.31" incLanes="11568_0" intLanes="" shape="-52.18,31.64 -53.27,34.97" rightOfWay="edgePriority"/>
    <junction id="9" type="priority" x="-140.27" y="24.76" incLanes="12609_0" intLanes=":9_0_0" shape="-138.07,24.50 -140.93,22.66 -142.51,24.85 -139.69,26.93" rightOfWay="edgePriority">
        <request index="0" response="0" foes="0" cont="0"/>
    </junction>

    <connection from="11413" to="11416" fromLane="0" toLane="0" contPos="-4.00" via=":15_0_0" dir="s" state="M"/>
    <connection from="11416" to="12609" fromLane="0" toLane="0" contPos="-4.00" shape="-125.93,8.05 -126.96,8.44 -129.01,9.34 -130.91,10.45 -131.70,11.05 -132.42,11.73 -133.02,12.45 -133.49,13.26" via=":21_2_0" dir="s" state="m"/>
    <connection from="11416" to="11564" fromLane="0" toLane="0" contPos="-4.00" shape="-125.93,8.05 -127.14,8.41 -129.53,8.84 -131.95,8.98 -135.45,8.79 -138.89,8.27 -143.33,7.25 -147.67,5.95" via=":21_3_0" dir="l" state="m"/>
    <connection from="11565" to="12702" fromLane="0" toLane="0" contPos="-4.00" shape="-146.59,2.62 -142.57,3.83 -138.49,4.79 -135.38,5.28 -132.24,5.49 -130.14,5.39 -128.08,5.04 -127.07,4.74" via=":21_4_0" dir="r" state="M"/>
    <connection from="11565" to="11568" fromLane="0" toLane="0" contPos="-4.00" shape="-146.59,2.62 -132.92,7.09 -119.26,11.55" via=":21_5_0" dir="s" state="M"/>
    <connection from="11565" to="12609" fromLane="0" toLane="0" contPos="-4.00" shape="-146.59,2.62 -142.55,4.07 -139.93,5.19 -137.40,6.52 -136.20,7.30 -135.08,8.18 -134.09,9.22 -133.37,10.45 -133.13,11.84 -133.49,13.26" via=":21_6_0" dir="l" state="m"/>
    <connection from="11567" to="12609" fromLane="0" toLane="0" contPos="-4.00" shape="-120.33,14.88 -123.14,14.00 -125.97,13.23 -127.88,12.79 -128.85,12.62 -129.82,12.48 -130.79,12.40 -131.77,12.41 -132.73,12.61 -133.49,13.26" via=":21_0_0" dir="r" state="M"/>
    <connection from="11567" to="11564" fromLane="0" toLane="0" contPos="-4.00" shape="-120.33,14.88 -134.01,10.41 -147.67,5.95" via=":21_1_0" dir="s" state="M"/>
    <connection from="11656" to="11564" fromLane="0" toLane="0" contPos="-4.00" shape="-136.59,11.82 -136.44,11.77 -136.83,11.19 -137.44,10.64 -138.22,10.06 -139.11,9.50 -140.07,8.97 -142.16,7.99 -144.33,7.12 -147.67,5.95" via=":21_7_0" dir="r" state="m"/>
    <connection from="11656" to="12702" fromLane="0" toLane="0" contPos="-4.00" shape="-136.59,11.82 -135.97,10.57 -135.14,9.51 -134.17,8.57 -133.11,7.73 -130.80,6.33 -128.34,5.22 -127.07,4.74" via=":21_8_0" dir="s" state="m"/>
    <connection from="11656" to="11568" fromLane="0" toLane="0" contPos="-4.00" shape="-136.59,11.82 -135.37,10.25 -133.77,9.48 -132.34,9.18 -131.00,9.10 -129.73,9.14 -128.47,9.27 -126.08,9.68 -122.62,10.53 -119.26,11.55" via=":21_9_0" dir="l" state="m"/>
    <connection from="11659" to="11656" fromLane="0" toLane="0" contPos="-4.00" via=":17_0_0" dir="s" state="M"/>
    <connection from="12609" to="11660" fromLane="0" toLane="0" contPos="-4.00" via=":9_0_0" dir="s" state="M"/>
    <connection from="12702" to="11412" fromLane="0" toLane="0" contPos="-4.00" via=":11_0_0" dir="s" state="M"/>

    <connection from=":11_0" to="11412" fromLane="0" toLane="0" dir="s" state="M"/>
    <connection from=":15_0" to="11416" fromLane="0" toLane="0" dir="s" state="M"/>
    <connection from=":17_0" to="11656" fromLane="0" toLane="0" dir="s" state="M"/>
    <connection from=":21_0" to="12609" fromLane="0" toLane="0" dir="r" state="M"/>
    <connection from=":21_1" to="11564" fromLane="0" toLane="0" dir="s" state="M"/>
    <connection from=":21_2" to="12609" fromLane="0" toLane="0" dir="s" state="M"/>
    <connection from=":21_3" to="11564" fromLane="0" toLane="0" dir="l" state="M"/>
    <connection from=":21_4" to="12702" fromLane="0" toLane="0" dir="r" state="M"/>
    <connection from=":21_5" to="11568" fromLane="0" toLane="0" dir="s" state="M"/>
    <connection from=":21_6" to="12609" fromLane="0" toLane="0" dir="l" state="M"/>
    <connection from=":21_7" to="11564" fromLane="0" toLane="0" dir="r" state="M"/>
    <connection from=":21_8" to="12702" fromLane="0" toLane="0" dir="s" state="M"/>
    <connection from=":21_9" to="11568" fromLane="0" toLane="0" dir="l" state="M"/>
    <connection from=":9_0" to="11660" fromLane="0" toLane="0" dir="s" state="M"/>

</net>