<routes>
	<vehicle depart="0.1" departLane="0" departPos="23.4916921732702" departSpeed="8.3869026" id="310" type="bicycle">
		<route edges=":78_1 20188 20185"/>
	</vehicle>
	<vehicle depart="0.1" departLane="0" departPos="23.600065356751635" departSpeed="0.0" id="33" type="passenger">
		<route edges=":76_1 20194"/>
	</vehicle>
	<vehicle depart="0.1" departLane="0" departPos="69.91572171416041" departSpeed="0.0" id="34" type="passenger">
		<route edges="19843 20185"/>
	</vehicle>
	<vehicle depart="0.1" departLane="0" departPos="62.41341322124922" departSpeed="0.0" id="35" type="passenger">
		<route edges="19843 20185"/>
	</vehicle>
	<vehicle depart="0.1" departLane="0" departPos="19.1991152554282" departSpeed="0.0" id="311" type="passenger">
		<route edges="20183 20186"/>
	</vehicle>
	<vehicle depart="0.1" departLane="0" departPos="4.682973979773886" departSpeed="2.9234464" id="327" type="passenger">
		<route edges=":78_4 20188"/>
	</vehicle>
	<vehicle depart="0.1" departLane="0" departPos="14.4365893926229" departSpeed="4.0530173" id="331" type="passenger">
		<route edges="20186 19844"/>
	</vehicle>
</routes>
