<!-- generated on 2020-12-18 16:50:03.048188 by ipykernel_launcher.py v1_2_0+5214-53edc58fcd
-->
<connections>
	<connection contPos="-4.0" from="51" fromLane="0" keepClear="true" to="72" toLane="0"/>
	<connection contPos="-4.0" from="51" fromLane="0" keepClear="true" to="62" toLane="0"/>
	<connection contPos="-4.0" from="53" fromLane="0" keepClear="true" to="63" toLane="0"/>
	<connection contPos="-4.0" from="53" fromLane="0" keepClear="true" to="69" toLane="0"/>
	<connection contPos="-4.0" from="55" fromLane="0" keepClear="true" to="64" toLane="0"/>
	<connection contPos="-4.0" from="55" fromLane="0" keepClear="true" to="66" toLane="0"/>
	<connection contPos="-4.0" from="56" fromLane="0" keepClear="true" to="61" toLane="0"/>
	<connection contPos="-4.0" from="56" fromLane="0" keepClear="true" to="67" toLane="0"/>
	<connection contPos="-4.0" from="58" fromLane="0" keepClear="true" to="68" toLane="0"/>
	<connection contPos="-4.0" from="58" fromLane="0" keepClear="true" to="71" toLane="0"/>
	<connection contPos="-4.0" from="60" fromLane="0" keepClear="true" to="70" toLane="0"/>
	<connection contPos="-4.0" from="60" fromLane="0" keepClear="true" to="65" toLane="0"/>
	<connection contPos="-4.0" from="61" fromLane="0" keepClear="true" to="57" toLane="0"/>
	<connection contPos="-4.0" from="62" fromLane="0" keepClear="true" to="56" toLane="0"/>
	<connection contPos="-4.0" from="63" fromLane="0" keepClear="true" to="57" toLane="0"/>
	<connection contPos="-4.0" from="64" fromLane="0" keepClear="true" to="52" toLane="0"/>
	<connection contPos="-4.0" from="65" fromLane="0" keepClear="true" to="52" toLane="0"/>
	<connection contPos="-4.0" from="66" fromLane="0" keepClear="true" to="59" toLane="0"/>
	<connection contPos="-4.0" from="67" fromLane="0" keepClear="true" to="54" toLane="0"/>
	<connection contPos="-4.0" from="68" fromLane="0" keepClear="true" to="54" toLane="0"/>
	<connection contPos="-4.0" from="69" fromLane="0" keepClear="true" to="55" toLane="0"/>
	<connection contPos="-4.0" from="70" fromLane="0" keepClear="true" to="56" toLane="0"/>
	<connection contPos="-4.0" from="71" fromLane="0" keepClear="true" to="55" toLane="0"/>
	<connection contPos="-4.0" from="72" fromLane="0" keepClear="true" to="59" toLane="0"/>
</connections>
