<routes>
	<vehicle depart="0.1" departLane="0" departPos="10.371889958919079" departSpeed="7.7738938" id="32" type="passenger">
		<route edges="89506 89503"/>
	</vehicle>
	<vehicle depart="0.1" departLane="0" departPos="15.343096188917057" departSpeed="7.5529592" id="314" type="passenger">
		<route edges=":30_4 89732 90510"/>
	</vehicle>
	<vehicle depart="0.1" departLane="0" departPos="16.829503769284578" departSpeed="3.5845512" id="329" type="passenger">
		<route edges="89507 89696"/>
	</vehicle>
	<vehicle depart="0.1" departLane="0" departPos="18.821471911940453" departSpeed="6.7303761" id="330" type="passenger">
		<route edges=":30_3 89507 89696"/>
	</vehicle>
	<vehicle depart="0.1" departLane="0" departPos="7.479199714252699" departSpeed="0.058405785" id="333" type="passenger">
		<route edges=":30_1 89732"/>
	</vehicle>
	<vehicle depart="0.1" departLane="0" departPos="51.1094145624112" departSpeed="2.3272628" id="334" type="passenger">
		<route edges="89504 89732"/>
	</vehicle>
	<vehicle depart="0.1" departLane="0" departPos="37.10252807011071" departSpeed="3.7527895" id="335" type="passenger">
		<route edges="89504 89732"/>
	</vehicle>
	<vehicle depart="0.1" departLane="0" departPos="19.927727745819453" departSpeed="5.1379008" id="338" type="passenger">
		<route edges="89504 89732"/>
	</vehicle>
	<vehicle depart="0.1" departLane="0" departPos="12.0467241906869" departSpeed="3.2492403" id="339" type="passenger">
		<route edges="89504 89732"/>
	</vehicle>
	<vehicle depart="0.1" departLane="0" departPos="33.63382786824731" departSpeed="6.2779489" id="316" type="truck">
		<route edges=":31_1 89506 89732"/>
	</vehicle>
</routes>
