<routes>
	<vehicle depart="0.1" departLane="0" departPos="20.50201780973193" departSpeed="4.207612" id="39" type="bicycle">
		<route edges="14378"/>
	</vehicle>
	<vehicle depart="0.1" departLane="0" departPos="32.04985037509634" departSpeed="0.0" id="316" type="passenger">
		<route edges="14544 14024"/>
	</vehicle>
	<vehicle depart="0.1" departLane="0" departPos="44.84168217099716" departSpeed="0.0" id="320" type="passenger">
		<route edges=":68_7 14442"/>
	</vehicle>
	<vehicle depart="0.1" departLane="0" departPos="32.081685806233125" departSpeed="0.16576562" id="326" type="passenger">
		<route edges="14379 14445"/>
	</vehicle>
	<vehicle depart="0.1" departLane="0" departPos="50.29637141165096" departSpeed="1.0535245" id="336" type="passenger">
		<route edges="14379 14445"/>
	</vehicle>
	<vehicle depart="0.1" departLane="0" departPos="39.90212412729419" departSpeed="1.4087827" id="344" type="passenger">
		<route edges="14379 14445"/>
	</vehicle>
	<vehicle depart="0.1" departLane="0" departPos="17.38678126146782" departSpeed="1.1125449" id="351" type="passenger">
		<route edges="14379 14445"/>
	</vehicle>
	<vehicle depart="0.1" departLane="0" departPos="37.33776145978355" departSpeed="0.0" id="33" type="motorcycle">
		<route edges=":68_7 14442"/>
	</vehicle>
	<vehicle depart="0.1" departLane="0" departPos="10.182026466151655" departSpeed="0.037092626" id="325" type="motorcycle">
		<route edges=":72_2 14445"/>
	</vehicle>
	<vehicle depart="0.1" departLane="0" departPos="24.704230701248306" departSpeed="0.074730219" id="30" type="truck">
		<route edges=":72_1 14378"/>
	</vehicle>
</routes>
