<routes>
	<vehicle depart="0.1" departLane="0" departPos="69.88177132678301" departSpeed="0.0" id="31" type="passenger">
		<route edges="23606 23546"/>
	</vehicle>
	<vehicle depart="0.1" departLane="0" departPos="69.87178369678513" departSpeed="0.0" id="37" type="passenger">
		<route edges="23223 23547"/>
	</vehicle>
	<vehicle depart="0.1" departLane="0" departPos="4.552482197238527" departSpeed="1.3549054" id="311" type="passenger">
		<route edges=":45_2 23605"/>
	</vehicle>
	<vehicle depart="0.1" departLane="0" departPos="13.915836647510544" departSpeed="0.81748426" id="315" type="passenger">
		<route edges=":47_0 23549"/>
	</vehicle>
	<vehicle depart="0.1" departLane="0" departPos="62.37391358337398" departSpeed="0.0" id="326" type="passenger">
		<route edges="23606 23546"/>
	</vehicle>
	<vehicle depart="0.1" departLane="0" departPos="2.5" departSpeed="0.51727867" id="327" type="passenger">
		<route edges=":47_0 23549"/>
	</vehicle>
	<vehicle depart="0.1" departLane="0" departPos="58.47931642326187" departSpeed="0.0096932213" id="336" type="passenger">
		<route edges="23491 23553"/>
	</vehicle>
	<vehicle depart="0.1" departLane="0" departPos="14.140600637986022" departSpeed="11.715693" id="337" type="passenger">
		<route edges=":48_5 23547 23550"/>
	</vehicle>
	<vehicle depart="0.1" departLane="0" departPos="70.73506927108895" departSpeed="11.398585" id="347" type="passenger">
		<route edges="23544 23547"/>
	</vehicle>
	<vehicle depart="0.1" departLane="0" departPos="16.738883864847047" departSpeed="2.4933876" id="30" type="truck">
		<route edges=":45_2 23605"/>
	</vehicle>
</routes>
