<!-- generated on Tue Feb  9 22:04:30 2021 by Eclipse SUMO netconvert Version 1.8.0
<configuration xmlns:xsi="http://www.w3.org/2001/XMLSchema-instance" xsi:noNamespaceSchemaLocation="http://sumo.dlr.de/xsd/netconvertConfiguration.xsd">

    <input>
        <node-files value="./converted_scenarios/scenario-factory/BEL_Aarschot-6_1_I-1-1/BEL_Aarschot-6_1_I-1-1.nod.xml"/>
        <edge-files value="./converted_scenarios/scenario-factory/BEL_Aarschot-6_1_I-1-1/BEL_Aarschot-6_1_I-1-1.edg.xml"/>
        <connection-files value="./converted_scenarios/scenario-factory/BEL_Aarschot-6_1_I-1-1/BEL_Aarschot-6_1_I-1-1.con.xml"/>
        <tllogic-files value="./converted_scenarios/scenario-factory/BEL_Aarschot-6_1_I-1-1/BEL_Aarschot-6_1_I-1-1.tll.xml"/>
        <type-files value="/home/zen/commonroad-interactive-benchmarks/install/commonroad-map-tool/crmapconverter/sumo_map/templates/DEU.typ.xml"/>
    </input>

    <output>
        <output-file value="./converted_scenarios/scenario-factory/BEL_Aarschot-6_1_I-1-1/BEL_Aarschot-6_1_I-1-1.net.xml"/>
    </output>

    <processing>
        <geometry.remove.keep-edges.explicit value="true"/>
        <geometry.avoid-overlap value="true"/>
        <offset.disable-normalization value="true"/>
    </processing>

    <junctions>
        <no-turnarounds value="true"/>
        <junctions.internal-link-detail value="20"/>
    </junctions>

    <report>
        <aggregate-warnings value="5"/>
    </report>

    <random_number>
        <seed value="1234"/>
    </random_number>

</configuration>
--><net xmlns:xsi="http://www.w3.org/2001/XMLSchema-instance" version="1.6" junctionCornerDetail="5" junctionLinkDetail="20" limitTurnSpeed="5.50" xsi:noNamespaceSchemaLocation="http://sumo.dlr.de/xsd/net_file.xsd">

    <location netOffset="0.00,0.00" convBoundary="288.53,847.01,640.75,1055.40" origBoundary="288.53,847.01,640.75,1055.40" projParameter="!"/>

    <type id="highway.bridleway" priority="1" speed="2.78" allow="pedestrian" oneway="1" width="2.00"/>
    <type id="highway.bus_guideway" priority="1" speed="27.78" allow="bus" oneway="1"/>
    <type id="highway.cycleway" priority="1" speed="8.33" allow="bicycle" oneway="0" width="1.00"/>
    <type id="highway.footway" priority="1" speed="2.78" allow="pedestrian" oneway="1" width="2.00"/>
    <type id="highway.ford" priority="1" speed="2.78" allow="army" oneway="0"/>
    <type id="highway.living_street" priority="2" speed="2.78" disallow="tram rail_urban rail rail_electric rail_fast ship" oneway="0"/>
    <type id="highway.motorway" priority="14" speed="39.44" allow="private emergency authority army vip passenger hov taxi bus coach delivery truck trailer motorcycle evehicle custom1 custom2" oneway="1"/>
    <type id="highway.motorway_link" priority="9" speed="22.22" allow="private emergency authority army vip passenger hov taxi bus coach delivery truck trailer motorcycle evehicle custom1 custom2" oneway="1"/>
    <type id="highway.path" priority="1" speed="2.78" allow="pedestrian bicycle" oneway="0" width="2.00"/>
    <type id="highway.pedestrian" priority="1" speed="2.78" allow="pedestrian" oneway="1" width="2.00"/>
    <type id="highway.primary" priority="12" speed="27.78" disallow="pedestrian tram rail_urban rail rail_electric rail_fast ship" oneway="0"/>
    <type id="highway.primary_link" priority="7" speed="22.22" disallow="pedestrian tram rail_urban rail rail_electric rail_fast ship" oneway="0"/>
    <type id="highway.raceway" priority="15" speed="83.33" allow="vip" oneway="0"/>
    <type id="highway.residential" priority="3" speed="13.89" disallow="pedestrian tram rail_urban rail rail_electric rail_fast ship" oneway="0"/>
    <type id="highway.secondary" priority="11" speed="27.78" disallow="pedestrian tram rail_urban rail rail_electric rail_fast ship" oneway="0"/>
    <type id="highway.secondary_link" priority="6" speed="22.22" disallow="pedestrian tram rail_urban rail rail_electric rail_fast ship" oneway="0"/>
    <type id="highway.service" priority="1" speed="5.56" allow="pedestrian delivery bicycle" oneway="0"/>
    <type id="highway.stairs" priority="1" speed="1.39" allow="pedestrian" oneway="1" width="2.00"/>
    <type id="highway.step" priority="1" speed="1.39" allow="pedestrian" oneway="1" width="2.00"/>
    <type id="highway.steps" priority="1" speed="1.39" allow="pedestrian" oneway="1" width="2.00"/>
    <type id="highway.tertiary" priority="10" speed="22.22" disallow="pedestrian tram rail_urban rail rail_electric rail_fast ship" oneway="0"/>
    <type id="highway.tertiary_link" priority="5" speed="22.22" disallow="pedestrian tram rail_urban rail rail_electric rail_fast ship" oneway="0"/>
    <type id="highway.track" priority="1" speed="5.56" allow="pedestrian motorcycle moped bicycle" oneway="0"/>
    <type id="highway.trunk" priority="13" speed="27.78" disallow="pedestrian bicycle tram rail_urban rail rail_electric rail_fast ship" oneway="0"/>
    <type id="highway.trunk_link" priority="8" speed="22.22" disallow="pedestrian bicycle tram rail_urban rail rail_electric rail_fast ship" oneway="0"/>
    <type id="highway.unclassified" priority="4" speed="13.89" disallow="pedestrian tram rail_urban rail rail_electric rail_fast ship" oneway="0"/>
    <type id="highway.unsurfaced" priority="1" speed="8.33" disallow="tram rail_urban rail rail_electric rail_fast ship" oneway="0"/>
    <type id="railway.highspeed" priority="21" speed="69.44" allow="rail_fast" oneway="1"/>
    <type id="railway.light_rail" priority="19" speed="27.78" allow="rail_urban" oneway="1"/>
    <type id="railway.preserved" priority="16" speed="27.78" allow="rail" oneway="1"/>
    <type id="railway.rail" priority="20" speed="44.44" allow="rail" oneway="1"/>
    <type id="railway.subway" priority="18" speed="27.78" allow="rail_urban" oneway="1"/>
    <type id="railway.tram" priority="17" speed="13.89" allow="tram" oneway="1"/>

    <edge id=":45_0" function="internal">
        <lane id=":45_0_0" index="0" disallow="pedestrian tram rail_urban rail rail_electric rail_fast ship" speed="10.74" length="27.65" width="3.50" shape="411.60,983.25 411.49,981.05 411.20,978.85 410.70,976.69 409.93,974.62 409.43,973.63 408.85,972.69 408.18,971.80 407.44,970.98 406.62,970.24 405.73,969.59 404.78,969.02 403.78,968.54 402.74,968.14 400.60,967.59 398.41,967.30 396.19,967.23 394.00,967.33"/>
    </edge>
    <edge id=":45_1" function="internal">
        <lane id=":45_1_0" index="0" disallow="pedestrian tram rail_urban rail rail_electric rail_fast ship" speed="12.85" length="33.56" width="3.50" shape="411.60,983.25 411.60,982.03 411.78,978.45 412.31,974.86 412.92,972.45 413.77,970.11 414.88,967.86 416.30,965.75 418.00,963.84 419.96,962.21 422.11,960.87 424.40,959.82 426.77,959.05 429.16,958.52"/>
    </edge>
    <edge id=":45_2" function="internal">
        <lane id=":45_2_0" index="0" disallow="pedestrian tram rail_urban rail rail_electric rail_fast ship" speed="11.88" length="28.57" width="3.50" shape="429.78,961.97 427.72,962.43 425.70,963.09 423.78,963.98 421.99,965.11 420.38,966.49 418.99,968.08 417.83,969.85 416.91,971.76 416.21,973.76 415.70,975.82 415.25,978.96 415.10,982.14 415.10,983.18"/>
    </edge>
    <edge id=":45_3" function="internal">
        <lane id=":45_3_0" index="0" disallow="pedestrian tram rail_urban rail rail_electric rail_fast ship" speed="36.11" length="36.19" width="3.50" shape="429.78,961.97 414.52,964.54 401.23,966.52 394.00,967.33"/>
    </edge>
    <edge id=":45_4" function="internal">
        <lane id=":45_4_0" index="0" disallow="pedestrian tram rail_urban rail rail_electric rail_fast ship" speed="36.11" length="35.86" width="3.50" shape="393.71,963.85 400.83,963.05 414.01,961.08 429.16,958.52"/>
    </edge>
    <edge id=":45_5" function="internal">
        <lane id=":45_5_0" index="0" disallow="pedestrian tram rail_urban rail rail_electric rail_fast ship" speed="11.79" length="33.48" width="3.50" shape="393.71,963.85 396.27,963.73 398.88,963.81 401.50,964.16 404.08,964.82 405.38,965.32 406.62,965.92 407.81,966.63 408.94,967.46 409.98,968.39 410.92,969.43 411.75,970.54 412.47,971.71 413.10,972.96 414.02,975.46 414.63,978.03 414.97,980.62 415.10,983.18"/>
    </edge>
    <edge id=":46_0" function="internal">
        <lane id=":46_0_0" index="0" disallow="pedestrian tram rail_urban rail rail_electric rail_fast ship" speed="11.54" length="23.42" width="3.50" shape="541.65,942.59 542.99,942.56 542.32,943.30 541.79,944.15 541.37,945.06 540.69,946.95 540.16,948.89 539.54,951.84 538.90,955.80 538.30,960.78 538.01,963.78"/>
    </edge>
    <edge id=":46_1" function="internal">
        <lane id=":46_1_0" index="0" disallow="pedestrian tram rail_urban rail rail_electric rail_fast ship" speed="36.11" length="25.67" width="3.50" shape="541.65,942.59 527.60,945.06 516.36,947.00"/>
    </edge>
    <edge id=":46_2" function="internal">
        <lane id=":46_2_0" index="0" disallow="pedestrian tram rail_urban rail rail_electric rail_fast ship" speed="36.11" length="29.04" width="3.48" shape="515.77,943.55 526.97,941.62 544.35,938.42"/>
    </edge>
    <edge id=":46_3" function="internal">
        <lane id=":46_3_0" index="0" disallow="pedestrian tram rail_urban rail rail_electric rail_fast ship" speed="11.62" length="37.10" width="3.50" shape="515.77,943.55 520.05,943.02 522.90,942.94 525.74,943.16 527.15,943.40 528.53,943.75 529.87,944.23 531.16,944.84 532.38,945.58 533.49,946.47 534.49,947.49 535.36,948.62 536.09,949.84 536.70,951.13 537.18,952.47 537.56,953.85 538.02,956.66 538.18,959.51 538.01,963.78"/>
    </edge>
    <edge id=":46_4" function="internal">
        <lane id=":46_4_0" index="0" disallow="pedestrian tram rail_urban rail rail_electric rail_fast ship" speed="10.57" length="30.51" width="3.50" shape="534.52,963.49 534.68,959.76 534.54,957.36 534.14,954.98 533.85,953.89 533.46,952.81 532.98,951.79 532.41,950.85 531.75,949.98 530.99,949.21 530.14,948.54 529.21,947.97 528.21,947.50 527.14,947.13 526.03,946.85 524.90,946.65 522.50,946.47 520.08,946.54 516.36,947.00"/>
    </edge>
    <edge id=":46_5" function="internal">
        <lane id=":46_5_0" index="0" disallow="pedestrian tram rail_urban rail rail_electric rail_fast ship" speed="12.69" length="28.61" width="3.48" shape="534.52,963.49 534.85,960.15 535.57,954.63 536.38,950.22 537.21,946.91 537.96,944.69 538.93,942.52 539.60,941.41 540.45,940.36 541.57,939.41 544.35,938.42"/>
    </edge>
    <edge id=":47_0" function="internal">
        <lane id=":47_0_0" index="0" disallow="pedestrian tram rail_urban rail rail_electric rail_fast ship" speed="10.91" length="28.87" width="3.50" shape="470.84,972.74 470.54,970.55 470.06,968.38 469.37,966.27 468.42,964.26 467.83,963.32 467.17,962.43 466.43,961.60 465.62,960.84 464.73,960.17 463.79,959.58 462.79,959.09 461.76,958.68 459.61,958.12 457.41,957.85 455.18,957.82 452.97,957.98 450.77,958.29"/>
    </edge>
    <edge id=":47_1" function="internal">
        <lane id=":47_1_0" index="0" disallow="pedestrian tram rail_urban rail rail_electric rail_fast ship" speed="12.48" length="33.77" width="3.50" shape="470.84,972.74 470.74,971.48 470.66,967.74 470.86,965.17 471.32,962.63 472.07,960.12 473.16,957.74 473.86,956.57 474.65,955.48 475.52,954.46 476.49,953.49 478.56,951.87 480.83,950.55 483.23,949.54 485.68,948.79 488.15,948.27"/>
    </edge>
    <edge id=":47_2" function="internal">
        <lane id=":47_2_0" index="0" disallow="pedestrian tram rail_urban rail rail_electric rail_fast ship" speed="11.49" length="28.47" width="3.50" shape="488.76,951.72 486.62,952.17 484.52,952.81 482.50,953.67 480.61,954.77 478.90,956.13 478.13,956.91 477.42,957.75 476.79,958.64 476.23,959.59 475.33,961.58 474.70,963.68 474.33,965.84 474.16,968.03 474.23,971.31 474.32,972.39"/>
    </edge>
    <edge id=":47_3" function="internal">
        <lane id=":47_3_0" index="0" disallow="pedestrian tram rail_urban rail rail_electric rail_fast ship" speed="36.11" length="38.55" width="3.50" shape="488.76,951.72 469.76,955.01 450.77,958.29"/>
    </edge>
    <edge id=":47_4" function="internal">
        <lane id=":47_4_0" index="0" disallow="pedestrian tram rail_urban rail rail_electric rail_fast ship" speed="36.11" length="38.56" width="3.50" shape="450.16,954.85 469.17,951.56 488.15,948.27"/>
    </edge>
    <edge id=":47_5" function="internal">
        <lane id=":47_5_0" index="0" disallow="pedestrian tram rail_urban rail rail_electric rail_fast ship" speed="11.92" length="34.74" width="3.50" shape="450.16,954.85 452.71,954.48 455.29,954.30 457.91,954.34 460.56,954.67 463.14,955.36 464.45,955.87 465.69,956.50 466.87,957.24 467.97,958.09 468.99,959.04 469.91,960.07 470.73,961.18 471.46,962.37 472.59,964.78 473.41,967.29 473.97,969.84 474.32,972.39"/>
    </edge>
    <edge id=":48_0" function="internal">
        <lane id=":48_0_0" index="0" disallow="pedestrian tram rail_urban rail rail_electric rail_fast ship" speed="13.33" length="30.09" width="3.50" shape="393.72,967.36 391.67,967.64 389.67,968.16 387.74,968.93 385.92,969.94 384.24,971.16 382.71,972.56 381.33,974.11 380.09,975.78 378.49,978.44 377.14,981.25 376.00,984.15 374.77,988.12"/>
    </edge>
    <edge id=":48_1" function="internal">
        <lane id=":48_1_0" index="0" disallow="pedestrian tram rail_urban rail rail_electric rail_fast ship" speed="36.11" length="37.54" width="3.50" shape="393.72,967.36 384.38,967.99 373.97,968.34 364.58,968.29 356.22,967.90"/>
    </edge>
    <edge id=":48_2" function="internal">
        <lane id=":48_2_0" index="0" disallow="pedestrian tram rail_urban rail rail_electric rail_fast ship" speed="36.11" length="36.98" width="3.50" shape="356.47,964.41 364.69,964.79 373.94,964.84 384.21,964.49 393.41,963.87"/>
    </edge>
    <edge id=":48_3" function="internal">
        <lane id=":48_3_0" index="0" disallow="pedestrian tram rail_urban rail rail_electric rail_fast ship" speed="11.70" length="36.22" width="3.50" shape="356.47,964.41 360.63,964.88 363.36,965.44 366.02,966.25 368.57,967.37 369.77,968.07 370.91,968.88 371.96,969.79 372.91,970.81 373.74,971.93 374.44,973.13 375.00,974.41 375.42,975.73 375.71,977.10 375.89,978.48 375.93,981.26 375.65,984.03 375.11,986.77 374.77,988.12"/>
    </edge>
    <edge id=":48_4" function="internal">
        <lane id=":48_4_0" index="0" disallow="pedestrian tram rail_urban rail rail_electric rail_fast ship" speed="10.66" length="29.84" width="3.50" shape="371.39,987.18 371.69,986.04 372.15,983.68 372.39,981.35 372.34,979.02 372.20,977.94 371.96,976.86 371.62,975.82 371.18,974.84 370.64,973.92 369.99,973.06 369.25,972.28 368.43,971.57 367.52,970.94 366.57,970.39 364.44,969.45 362.19,968.78 359.86,968.31 356.22,967.90"/>
    </edge>
    <edge id=":48_5" function="internal">
        <lane id=":48_5_0" index="0" disallow="pedestrian tram rail_urban rail rail_electric rail_fast ship" speed="14.26" length="34.34" width="3.50" shape="371.39,987.18 372.76,982.82 374.04,979.60 375.58,976.46 377.42,973.48 378.86,971.58 380.48,969.81 382.29,968.22 384.28,966.82 386.42,965.67 388.69,964.79 391.05,964.20 393.41,963.87"/>
    </edge>
    <edge id=":49_0" function="internal">
        <lane id=":49_0_0" index="0" disallow="pedestrian tram rail_urban rail rail_electric rail_fast ship" speed="36.11" length="30.37" width="3.47" shape="571.78,937.48 556.36,939.93 541.84,942.54"/>
    </edge>
    <edge id=":49_1" function="internal">
        <lane id=":49_1_0" index="0" disallow="pedestrian tram rail_urban rail rail_electric rail_fast ship" speed="11.54" length="36.90" width="3.50" shape="571.78,937.48 567.72,937.91 564.95,937.93 562.19,937.66 560.76,937.37 559.37,936.96 558.00,936.42 556.68,935.73 555.44,934.89 554.30,933.90 553.30,932.77 552.44,931.55 551.73,930.24 551.17,928.90 550.73,927.52 550.40,926.11 550.03,923.37 549.94,920.61 550.19,916.59"/>
    </edge>
    <edge id=":49_2" function="internal">
        <lane id=":49_2_0" index="0" disallow="pedestrian tram rail_urban rail rail_electric rail_fast ship" speed="10.49" length="30.25" width="3.50" shape="553.67,916.95 553.45,920.43 553.53,922.76 553.84,925.06 554.10,926.20 554.45,927.31 554.90,928.38 555.46,929.41 556.12,930.36 556.89,931.23 557.77,932.00 558.73,932.65 559.76,933.19 560.84,933.62 561.96,933.95 563.10,934.18 565.42,934.41 567.75,934.40 571.21,934.03"/>
    </edge>
    <edge id=":49_3" function="internal">
        <lane id=":49_3_0" index="0" disallow="pedestrian tram rail_urban rail rail_electric rail_fast ship" speed="13.20" length="30.35" width="3.47" shape="553.67,916.95 553.14,921.29 552.27,926.70 551.31,931.02 550.36,934.25 549.51,936.41 548.43,938.50 547.70,939.55 546.80,940.54 545.65,941.40 541.84,942.54"/>
    </edge>
    <edge id=":49_4" function="internal">
        <lane id=":49_4_0" index="0" disallow="pedestrian tram rail_urban rail rail_electric rail_fast ship" speed="11.53" length="23.05" width="3.50" shape="544.55,938.38 544.31,938.21 545.03,937.54 545.61,936.73 546.09,935.87 546.87,934.05 547.48,932.16 548.22,929.29 548.98,925.40 549.72,920.50 550.19,916.59"/>
    </edge>
    <edge id=":49_5" function="internal">
        <lane id=":49_5_0" index="0" disallow="pedestrian tram rail_urban rail rail_electric rail_fast ship" speed="36.11" length="27.01" width="3.50" shape="544.55,938.38 555.75,936.48 571.21,934.03"/>
    </edge>

    <edge id="22776" from="43" to="49" priority="3" type="highway.residential" spreadType="center" length="70.00" shape="640.75,925.88 555.84,932.70">
        <lane id="22776_0" index="0" disallow="pedestrian tram rail_urban rail rail_electric rail_fast ship" speed="36.11" length="70.00" width="3.50" customShape="1" shape="640.75,925.88 635.14,926.67 612.31,930.26 589.10,934.61 571.73,937.49"/>
    </edge>
    <edge id="22777" from="49" to="38" priority="3" type="highway.residential" spreadType="center" length="70.00" shape="555.56,929.21 640.23,922.42">
        <lane id="22777_0" index="0" disallow="pedestrian tram rail_urban rail rail_electric rail_fast ship" speed="36.11" length="70.00" width="3.50" customShape="1" shape="571.21,934.03 588.54,931.16 611.76,926.80 634.64,923.21 640.23,922.42"/>
    </edge>
    <edge id="22888" from="26" to="46" priority="3" type="highway.residential" spreadType="center" length="70.02" shape="528.23,1033.21 530.19,949.69">
        <lane id="22888_0" index="0" disallow="pedestrian tram rail_urban rail rail_electric rail_fast ship" speed="36.11" length="70.02" width="3.50" customShape="1" shape="528.23,1033.21 534.52,963.47"/>
    </edge>
    <edge id="22889" from="46" to="24" priority="3" type="highway.residential" spreadType="center" length="70.00" shape="533.68,949.78 531.72,1033.50">
        <lane id="22889_0" index="0" disallow="pedestrian tram rail_urban rail rail_electric rail_fast ship" speed="36.11" length="70.00" width="3.50" customShape="1" shape="538.01,963.78 531.72,1033.50"/>
    </edge>
    <edge id="23223" from="42" to="48" priority="3" type="highway.residential" spreadType="center" length="70.00" shape="352.09,1054.46 372.64,972.68">
        <lane id="23223_0" index="0" disallow="pedestrian tram rail_urban rail rail_electric rail_fast ship" speed="36.11" length="70.00" width="3.50" customShape="1" shape="352.09,1054.46 356.03,1041.32 361.63,1022.36 371.39,987.18"/>
    </edge>
    <edge id="23224" from="48" to="33" priority="3" type="highway.residential" spreadType="center" length="70.00" shape="376.04,973.53 355.46,1055.40">
        <lane id="23224_0" index="0" disallow="pedestrian tram rail_urban rail rail_electric rail_fast ship" speed="36.11" length="70.00" width="3.50" customShape="1" shape="374.77,988.12 365.08,1023.03 359.52,1041.86 355.46,1055.40"/>
    </edge>
    <edge id="23336" from="49" to="37" priority="3" type="highway.residential" spreadType="center" length="69.99" shape="553.99,930.91 557.80,847.01">
        <lane id="23336_0" index="0" disallow="pedestrian tram rail_urban rail rail_electric rail_fast ship" speed="36.11" length="69.99" width="3.50" customShape="1" shape="550.19,916.59 555.34,869.54 557.80,847.01"/>
    </edge>
    <edge id="23337" from="41" to="49" priority="3" type="highway.residential" spreadType="center" length="70.01" shape="561.28,847.37 557.48,931.07">
        <lane id="23337_0" index="0" disallow="pedestrian tram rail_urban rail rail_electric rail_fast ship" speed="36.11" length="70.01" width="3.50" customShape="1" shape="561.28,847.37 558.82,869.92 553.67,916.97"/>
    </edge>
    <edge id="23491" from="10" to="47" priority="3" type="highway.residential" spreadType="center" length="70.03" shape="482.78,1041.41 468.77,959.97">
        <lane id="23491_0" index="0" disallow="pedestrian tram rail_urban rail rail_electric rail_fast ship" speed="36.11" length="70.03" width="3.50" customShape="1" shape="482.78,1041.41 481.37,1037.93 479.24,1031.61 477.48,1025.17 475.94,1018.15 474.58,1010.05 473.37,1000.37 470.84,972.71"/>
    </edge>
    <edge id="23492" from="47" to="6" priority="3" type="highway.residential" spreadType="center" length="70.00" shape="472.22,959.37 486.39,1041.02">
        <lane id="23492_0" index="0" disallow="pedestrian tram rail_urban rail rail_electric rail_fast ship" speed="36.11" length="70.00" width="3.50" customShape="1" shape="474.32,972.39 476.82,999.63 477.98,1009.12 479.29,1017.04 480.77,1023.89 482.46,1030.15 484.50,1036.30 486.39,1041.02"/>
    </edge>
    <edge id="23543" from="48" to="32" priority="3" type="highway.residential" spreadType="center" length="70.00" shape="373.90,974.84 288.53,951.57">
        <lane id="23543_0" index="0" disallow="pedestrian tram rail_urban rail rail_electric rail_fast ship" speed="36.11" length="70.00" width="3.50" customShape="1" shape="356.22,967.90 351.72,967.57 343.70,966.84 336.73,965.81 328.84,964.25 319.99,962.29 315.09,961.17 309.31,959.43 300.79,956.34 288.53,951.57"/>
    </edge>
    <edge id="23544" from="44" to="48" priority="3" type="highway.residential" spreadType="center" length="70.00" shape="288.83,947.93 374.83,971.46">
        <lane id="23544_0" index="0" disallow="pedestrian tram rail_urban rail rail_electric rail_fast ship" speed="36.11" length="70.00" width="3.50" customShape="1" shape="288.83,947.93 301.67,952.93 310.09,956.00 315.75,957.72 320.58,958.84 329.38,960.78 337.20,962.33 344.06,963.36 351.99,964.08 356.48,964.41"/>
    </edge>
    <edge id="23546" from="45" to="48" priority="3" type="highway.residential" spreadType="center" length="0.28" shape="412.38,971.43 374.41,974.89">
        <lane id="23546_0" index="0" disallow="pedestrian tram rail_urban rail rail_electric rail_fast ship" speed="36.11" length="0.28" width="3.50" customShape="1" shape="394.00,967.33 393.86,967.35 393.72,967.36"/>
    </edge>
    <edge id="23547" from="48" to="45" priority="3" type="highway.residential" spreadType="center" length="0.31" shape="374.09,971.40 412.07,967.94">
        <lane id="23547_0" index="0" disallow="pedestrian tram rail_urban rail rail_electric rail_fast ship" speed="36.11" length="0.31" width="3.50" customShape="1" shape="393.41,963.87 393.57,963.86 393.72,963.85"/>
    </edge>
    <edge id="23549" from="47" to="45" priority="3" type="highway.residential" spreadType="center" length="21.33" shape="470.85,961.42 412.52,971.41">
        <lane id="23549_0" index="0" disallow="pedestrian tram rail_urban rail rail_electric rail_fast ship" speed="36.11" length="21.33" width="3.50" customShape="1" shape="450.77,958.29 440.28,960.13 429.76,961.97"/>
    </edge>
    <edge id="23550" from="45" to="47" priority="3" type="highway.residential" spreadType="center" length="21.34" shape="411.93,967.96 470.26,957.98">
        <lane id="23550_0" index="0" disallow="pedestrian tram rail_urban rail rail_electric rail_fast ship" speed="36.11" length="21.34" width="3.50" customShape="1" shape="429.16,958.52 439.67,956.68 450.18,954.84"/>
    </edge>
    <edge id="23552" from="46" to="47" priority="3" type="highway.residential" spreadType="center" length="28.02" shape="532.21,951.50 470.73,961.44">
        <lane id="23552_0" index="0" disallow="pedestrian tram rail_urban rail rail_electric rail_fast ship" speed="36.11" length="28.02" width="3.50" customShape="1" shape="516.36,947.00 502.58,949.35 488.74,951.72"/>
    </edge>
    <edge id="23553" from="47" to="46" priority="3" type="highway.residential" spreadType="center" length="28.05" shape="470.18,957.99 531.66,948.04">
        <lane id="23553_0" index="0" disallow="pedestrian tram rail_urban rail rail_electric rail_fast ship" speed="36.11" length="28.05" width="3.50" customShape="1" shape="488.15,948.27 501.99,945.90 515.80,943.54"/>
    </edge>
    <edge id="23555" from="49" to="46" priority="3" type="highway.residential" spreadType="center" length="0.20" shape="556.89,932.25 533.01,951.13">
        <lane id="23555_0" index="0" disallow="pedestrian tram rail_urban rail rail_electric rail_fast ship" speed="36.11" length="0.20" width="3.47" customShape="1" shape="541.84,942.54 541.65,942.59"/>
    </edge>
    <edge id="23556" from="46" to="49" priority="3" type="highway.residential" spreadType="center" length="0.20" shape="530.86,948.41 554.74,929.53">
        <lane id="23556_0" index="0" disallow="pedestrian tram rail_urban rail rail_electric rail_fast ship" speed="36.11" length="0.20" width="3.48" customShape="1" shape="544.35,938.42 544.55,938.38"/>
    </edge>
    <edge id="23605" from="45" to="17" priority="3" type="highway.residential" spreadType="center" length="70.00" shape="413.95,969.36 427.28,1050.51">
        <lane id="23605_0" index="0" disallow="pedestrian tram rail_urban rail rail_electric rail_fast ship" speed="36.11" length="70.00" width="3.50" customShape="1" shape="415.10,983.18 415.11,983.70 415.05,1003.72 415.19,1012.23 415.59,1018.72 416.23,1024.19 417.12,1029.12 418.23,1033.48 419.51,1037.28 421.08,1040.96 422.97,1044.49 425.16,1047.84 427.28,1050.51"/>
    </edge>
    <edge id="23606" from="25" to="45" priority="3" type="highway.residential" spreadType="center" length="70.01" shape="423.12,1050.91 410.49,969.92">
        <lane id="23606_0" index="0" disallow="pedestrian tram rail_urban rail rail_electric rail_fast ship" speed="36.11" length="70.01" width="3.50" customShape="1" shape="423.12,1050.91 422.82,1050.55 420.42,1047.02 418.34,1043.29 416.59,1039.40 415.17,1035.40 413.92,1030.80 412.91,1025.63 412.19,1019.91 411.73,1013.15 411.55,1004.34 411.61,983.75 411.60,983.24"/>
    </edge>

    <junction id="10" type="dead_end" x="482.78" y="1041.41" incLanes="" intLanes="" shape="484.40,1040.76 481.16,1042.07" rightOfWay="edgePriority"/>
    <junction id="17" type="dead_end" x="427.28" y="1050.51" incLanes="23605_0" intLanes="" shape="428.65,1049.42 425.91,1051.60" rightOfWay="edgePriority"/>
    <junction id="24" type="dead_end" x="531.72" y="1033.50" incLanes="22889_0" intLanes="" shape="533.46,1033.66 529.98,1033.34" rightOfWay="edgePriority"/>
    <junction id="25" type="dead_end" x="423.12" y="1050.91" incLanes="" intLanes="" shape="424.47,1049.80 421.77,1052.03" rightOfWay="edgePriority"/>
    <junction id="26" type="dead_end" x="528.23" y="1033.21" incLanes="" intLanes="" shape="529.97,1033.37 526.49,1033.05" rightOfWay="edgePriority"/>
    <junction id="32" type="dead_end" x="288.53" y="951.57" incLanes="23543_0" intLanes="" shape="287.89,953.20 289.16,949.94" rightOfWay="edgePriority"/>
    <junction id="33" type="dead_end" x="355.46" y="1055.40" incLanes="23224_0" intLanes="" shape="357.14,1055.90 353.79,1054.90" rightOfWay="edgePriority"/>
    <junction id="37" type="dead_end" x="557.80" y="847.01" incLanes="23336_0" intLanes="" shape="556.06,846.82 559.54,847.20" rightOfWay="edgePriority"/>
    <junction id="38" type="dead_end" x="640.23" y="922.42" incLanes="22777_0" intLanes="" shape="639.99,920.68 640.48,924.15" rightOfWay="edgePriority"/>
    <junction id="41" type="dead_end" x="561.28" y="847.37" incLanes="" intLanes="" shape="559.54,847.18 563.02,847.56" rightOfWay="edgePriority"/>
    <junction id="42" type="dead_end" x="352.09" y="1054.46" incLanes="" intLanes="" shape="353.77,1054.97 350.41,1053.96" rightOfWay="edgePriority"/>
    <junction id="43" type="dead_end" x="640.75" y="925.88" incLanes="" intLanes="" shape="640.51,924.15 641.00,927.61" rightOfWay="edgePriority"/>
    <junction id="44" type="dead_end" x="288.83" y="947.93" incLanes="" intLanes="" shape="288.19,949.56 289.46,946.30" rightOfWay="edgePriority"/>
    <junction id="45" type="priority" x="412.23" y="969.68" incLanes="23606_0 23549_0 23547_0" intLanes=":45_0_0 :45_1_0 :45_2_0 :45_3_0 :45_4_0 :45_5_0" shape="409.85,983.27 416.85,983.15 417.14,977.86 418.19,973.39 420.01,969.74 422.59,966.91 425.94,964.89 430.06,963.69 428.85,956.80 421.37,958.16 415.85,959.23 411.29,960.08 406.71,960.79 401.13,961.43 393.56,962.10 394.15,969.08 398.87,969.11 402.76,970.08 405.80,971.98 407.99,974.81 409.35,978.57">
        <request index="0" response="001000" foes="001000" cont="0"/>
        <request index="1" response="111000" foes="111000" cont="0"/>
        <request index="2" response="000000" foes="100000" cont="0"/>
        <request index="3" response="000000" foes="100011" cont="0"/>
        <request index="4" response="000000" foes="000010" cont="0"/>
        <request index="5" response="001100" foes="001110" cont="0"/>
    </junction>
    <junction id="46" type="priority" x="531.94" y="949.77" incLanes="23555_0 23553_0 22888_0" intLanes=":46_0_0 :46_1_0 :46_2_0 :46_3_0 :46_4_0 :46_5_0" shape="546.84,943.13 545.01,936.48 515.48,941.82 516.66,948.72 522.03,948.28 526.32,949.00 529.55,950.85 531.70,953.86 532.77,958.01 532.78,963.31 539.75,963.94">
        <request index="0" response="000000" foes="001000" cont="0"/>
        <request index="1" response="000000" foes="111000" cont="0"/>
        <request index="2" response="000000" foes="100000" cont="0"/>
        <request index="3" response="000011" foes="100011" cont="0"/>
        <request index="4" response="000010" foes="000010" cont="0"/>
        <request index="5" response="001110" foes="001110" cont="0"/>
    </junction>