<routes>
	<vehicle depart="0.1" departLane="0" departPos="50.32107578512864" departSpeed="0.011901922" id="37" type="bicycle">
		<route edges="64 463"/>
	</vehicle>
	<vehicle depart="0.1" departLane="0" departPos="1.0" departSpeed="4.5523243" id="312" type="bicycle">
		<route edges="14 516"/>
	</vehicle>
	<vehicle depart="0.1" departLane="0" departPos="22.145569736306737" departSpeed="4.3964446" id="339" type="bicycle">
		<route edges="11 14 516"/>
	</vehicle>
	<vehicle depart="0.1" departLane="0" departPos="9.449099327536732" departSpeed="6.9304576" id="364" type="bicycle">
		<route edges="459 519 516"/>
	</vehicle>
	<vehicle depart="0.1" departLane="0" departPos="16.57326901308003" departSpeed="1.418998" id="338" type="bus">
		<route edges="11 14"/>
	</vehicle>
	<vehicle depart="0.1" departLane="0" departPos="9.340001844161261" departSpeed="9.954262" id="362" type="bus">
		<route edges=":53_3 457 1433 517"/>
	</vehicle>
	<vehicle depart="0.1" departLane="0" departPos="63.167821013373384" departSpeed="0.00020567594" id="31" type="passenger">
		<route edges="64 463"/>
	</vehicle>
	<vehicle depart="0.1" departLane="0" departPos="2.5" departSpeed="8.1542455" id="32" type="passenger">
		<route edges=":51_2 10 7"/>
	</vehicle>
	<vehicle depart="0.1" departLane="0" departPos="55.946958356066574" departSpeed="0.0022085964" id="34" type="passenger">
		<route edges="64 463"/>
	</vehicle>
	<vehicle depart="0.1" departLane="0" departPos="7.553615247461421" departSpeed="9.9762762" id="36" type="passenger">
		<route edges="1497 460 463"/>
	</vehicle>
	<vehicle depart="0.1" departLane="0" departPos="26.734312727126756" departSpeed="0.12203642" id="39" type="passenger">
		<route edges="459 519"/>
	</vehicle>
	<vehicle depart="0.1" departLane="0" departPos="60.28790757671195" departSpeed="0.0033106915" id="313" type="passenger">
		<route edges="350 11"/>
	</vehicle>
	<vehicle depart="0.1" departLane="0" departPos="25.16465635311812" departSpeed="0.0" id="318" type="passenger">
		<route edges="11 14"/>
	</vehicle>
	<vehicle depart="0.1" departLane="0" departPos="12.718566626799674" departSpeed="0.0" id="320" type="passenger">
		<route edges="523 10"/>
	</vehicle>
	<vehicle depart="0.1" departLane="0" departPos="70.19608131163605" departSpeed="0.0" id="322" type="passenger">
		<route edges="64 463"/>
	</vehicle>
	<vehicle depart="0.1" departLane="0" departPos="53.46351639591687" departSpeed="0.025893091" id="324" type="passenger">
		<route edges="350 11"/>
	</vehicle>
	<vehicle depart="0.1" departLane="0" departPos="46.221541693414295" departSpeed="0.098252248" id="327" type="passenger">
		<route edges="350 11"/>
	</vehicle>
	<vehicle depart="0.1" departLane="0" departPos="6.320626368028407" departSpeed="6.535248" id="328" type="passenger">
		<route edges="517 13 10 7"/>
	</vehicle>
	<vehicle depart="0.1" departLane="0" departPos="17.060098499291925" departSpeed="0.0" id="329" type="passenger">
		<route edges="14 516 1492 456"/>
	</vehicle>
	<vehicle depart="0.1" departLane="0" departPos="5.937398337630934" departSpeed="0.0" id="330" type="passenger">
		<route edges="523 10"/>
	</vehicle>
	<vehicle depart="0.1" departLane="0" departPos="12.496753988001629" departSpeed="0.0" id="331" type="passenger">
		<route edges="519 516"/>
	</vehicle>
	<vehicle depart="0.1" departLane="0" departPos="10.116664663672776" departSpeed="0.033105661" id="332" type="passenger">
		<route edges="14 1497 460 65"/>
	</vehicle>
	<vehicle depart="0.1" departLane="0" departPos="48.53706217429844" departSpeed="0.012339087" id="335" type="passenger">
		<route edges="64 463"/>
	</vehicle>
	<vehicle depart="0.1" departLane="0" departPos="38.85333018456646" departSpeed="0.25434721" id="336" type="passenger">
		<route edges="350 11"/>
	</vehicle>
	<vehicle depart="0.1" departLane="0" departPos="5.3891401367980425" departSpeed="0.0029817022" id="340" type="passenger">
		<route edges="519 516"/>
	</vehicle>
	<vehicle depart="0.1" departLane="0" departPos="97.58540875719723" departSpeed="8.2957236" id="343" type="passenger">
		<route edges="457 1433 517 13 10 349"/>
	</vehicle>
	<vehicle depart="0.1" departLane="0" departPos="41.1355854563546" departSpeed="0.050685081" id="344" type="passenger">
		<route edges="64 463"/>
	</vehicle>
	<vehicle depart="0.1" departLane="0" departPos="31.438530352487113" departSpeed="0.49829933" id="345" type="passenger">
		<route edges="350 11"/>
	</vehicle>
	<vehicle depart="0.1" departLane="0" departPos="22.213068135068585" departSpeed="11.684605" id="347" type="passenger">
		<route edges="349"/>
	</vehicle>
	<vehicle depart="0.1" departLane="0" departPos="33.879513571690225" departSpeed="0.14997347" id="352" type="passenger">
		<route edges="64 463"/>
	</vehicle>
	<vehicle depart="0.1" departLane="0" departPos="63.079812217589875" departSpeed="15.46598" id="354" type="passenger">
		<route edges="457 1433 517 13 522"/>
	</vehicle>
	<vehicle depart="0.1" departLane="0" departPos="69.03205251952052" departSpeed="0.0" id="356" type="passenger">
		<route edges="8 11"/>
	</vehicle>
	<vehicle depart="0.1" departLane="0" departPos="26.672781420276166" departSpeed="0.36012733" id="358" type="passenger">
		<route edges="64 463"/>
	</vehicle>
	<vehicle depart="0.1" departLane="0" departPos="19.98494129293358" departSpeed="0.3909763" id="359" type="passenger">
		<route edges="459 519"/>
	</vehicle>
	<vehicle depart="0.1" departLane="0" departPos="17.981125519476073" departSpeed="0.98287267" id="360" type="passenger">
		<route edges="350 11"/>
	</vehicle>
	<vehicle depart="0.1" departLane="0" departPos="60.42286859979572" departSpeed="1.4708927" id="361" type="passenger">
		<route edges="8 11"/>
	</vehicle>
	<vehicle depart="0.1" departLane="0" departPos="19.292486392497587" departSpeed="0.67338155" id="366" type="passenger">
		<route edges="64 463"/>
	</vehicle>
	<vehicle depart="0.1" departLane="0" departPos="49.14896621811968" departSpeed="3.8011308" id="368" type="passenger">
		<route edges="8 11"/>
	</vehicle>
	<vehicle depart="0.1" departLane="0" departPos="34.517829930935946" departSpeed="6.1021773" id="370" type="passenger">
		<route edges="8 11"/>
	</vehicle>
	<vehicle depart="0.1" departLane="0" departPos="11.526304218215794" departSpeed="0.96707667" id="372" type="passenger">
		<route edges="64 463"/>
	</vehicle>
	<vehicle depart="0.1" departLane="0" departPos="9.855205354039207" departSpeed="1.0591975" id="373" type="passenger">
		<route edges="350 11"/>
	</vehicle>
	<vehicle depart="0.1" departLane="0" departPos="6.638404961359649" departSpeed="0.10991685" id="376" type="passenger">
		<route edges="462 459"/>
	</vehicle>
	<vehicle depart="0.1" departLane="0" departPos="9.999390647382455" departSpeed="3.8041837" id="377" type="passenger">
		<route edges="8 11"/>
	</vehicle>
	<vehicle depart="0.1" departLane="0" departPos="16.88275801139602" departSpeed="0.0" id="33" type="motorcycle">
		<route edges="14 516 1492 456 453"/>
	</vehicle>
	<vehicle depart="0.1" departLane="0" departPos="3.579232374208308" departSpeed="7.7323121" id="333" type="motorcycle">
		<route edges="1433 517 13 10 349"/>
	</vehicle>
	<vehicle depart="0.1" departLane="0" departPos="31.022184388332708" departSpeed="0.026700037" id="342" type="motorcycle">
		<route edges="459 519"/>
	</vehicle>
	<vehicle depart="0.1" departLane="0" departPos="23.614661170036896" departSpeed="0.77053169" id="353" type="motorcycle">
		<route edges="350 11"/>
	</vehicle>
	<vehicle depart="0.1" departLane="0" departPos="20.155625057793145" departSpeed="6.0420642" id="374" type="motorcycle">
		<route edges="8 11"/>
	</vehicle>
	<vehicle depart="0.1" departLane="0" departPos="21.98738886101191" departSpeed="0.0" id="30" type="truck">
		<route edges="523 10"/>
	</vehicle>
	<vehicle depart="0.1" departLane="0" departPos="69.89480868423624" departSpeed="0.0" id="321" type="truck">
		<route edges="350 11"/>
	</vehicle>
	<vehicle depart="0.1" departLane="0" departPos="17.925009632822277" departSpeed="7.6240228" id="326" type="truck">
		<route edges=":51_3 522"/>
	</vehicle>
	<vehicle depart="0.1" departLane="0" departPos="12.029138820383617" departSpeed="1.1688296" id="363" type="truck">
		<route edges="459 519"/>
	</vehicle>
	<vehicle depart="0.1" departLane="0" departPos="16.511520118041506" departSpeed="0.0" id="371" type="truck">
		<route edges="462 459"/>
	</vehicle>
</routes>
