<routes>
	<vehicle depart="0.1" departLane="0" departPos="23.292642560355166" departSpeed="1.8663614" id="36" type="bicycle">
		<route edges="31669 31715"/>
	</vehicle>
	<vehicle depart="0.1" departLane="0" departPos="18.120376292857785" departSpeed="1.9503052" id="31" type="passenger">
		<route edges="31858 31716"/>
	</vehicle>
	<vehicle depart="0.1" departLane="0" departPos="9.925485690414146" departSpeed="0.89617608" id="33" type="passenger">
		<route edges="31858 31716"/>
	</vehicle>
	<vehicle depart="0.1" departLane="0" departPos="22.506516196717744" departSpeed="5.0439882" id="34" type="passenger">
		<route edges="31670 31673"/>
	</vehicle>
	<vehicle depart="0.1" departLane="0" departPos="25.724444502466458" departSpeed="3.060391" id="35" type="passenger">
		<route edges=":41_1 31670"/>
	</vehicle>
	<vehicle depart="0.1" departLane="0" departPos="4.393073909742657" departSpeed="5.723244" id="37" type="passenger">
		<route edges=":45_0 36025 31862"/>
	</vehicle>
	<vehicle depart="0.1" departLane="0" departPos="11.832910822678771" departSpeed="3.9101694" id="320" type="passenger">
		<route edges="31670 31673"/>
	</vehicle>
	<vehicle depart="0.1" departLane="0" departPos="13.49292966547275" departSpeed="1.0185462" id="330" type="passenger">
		<route edges=":41_1 31670"/>
	</vehicle>
	<vehicle depart="0.1" departLane="0" departPos="27.806977809305465" departSpeed="0.65990769" id="335" type="passenger">
		<route edges=":42_2 31669 31715"/>
	</vehicle>
	<vehicle depart="0.1" departLane="0" departPos="6.3881256501037615" departSpeed="6.5562771" id="32" type="motorcycle">
		<route edges=":42_0 31673"/>
	</vehicle>
</routes>
