<!-- generated on Tue Feb  9 22:24:00 2021 by Eclipse SUMO netconvert Version 1.8.0
<configuration xmlns:xsi="http://www.w3.org/2001/XMLSchema-instance" xsi:noNamespaceSchemaLocation="http://sumo.dlr.de/xsd/netconvertConfiguration.xsd">

    <input>
        <node-files value="./converted_scenarios/scenario-factory/DEU_Ibbenbueren-6_1_I-1-1/DEU_Ibbenbueren-6_1_I-1-1.nod.xml"/>
        <edge-files value="./converted_scenarios/scenario-factory/DEU_Ibbenbueren-6_1_I-1-1/DEU_Ibbenbueren-6_1_I-1-1.edg.xml"/>
        <connection-files value="./converted_scenarios/scenario-factory/DEU_Ibbenbueren-6_1_I-1-1/DEU_Ibbenbueren-6_1_I-1-1.con.xml"/>
        <tllogic-files value="./converted_scenarios/scenario-factory/DEU_Ibbenbueren-6_1_I-1-1/DEU_Ibbenbueren-6_1_I-1-1.tll.xml"/>
        <type-files value="/home/zen/commonroad-interactive-benchmarks/install/commonroad-map-tool/crmapconverter/sumo_map/templates/DEU.typ.xml"/>
    </input>

    <output>
        <output-file value="./converted_scenarios/scenario-factory/DEU_Ibbenbueren-6_1_I-1-1/DEU_Ibbenbueren-6_1_I-1-1.net.xml"/>
    </output>

    <processing>
        <geometry.remove.keep-edges.explicit value="true"/>
        <geometry.avoid-overlap value="true"/>
        <offset.disable-normalization value="true"/>
    </processing>

    <junctions>
        <no-turnarounds value="true"/>
        <junctions.internal-link-detail value="20"/>
    </junctions>

    <report>
        <aggregate-warnings value="5"/>
    </report>

    <random_number>
        <seed value="1234"/>
    </random_number>

</configuration>
--><net xmlns:xsi="http://www.w3.org/2001/XMLSchema-instance" version="1.6" junctionCornerDetail="5" junctionLinkDetail="20" limitTurnSpeed="5.50" xsi:noNamespaceSchemaLocation="http://sumo.dlr.de/xsd/net_file.xsd">

    <location netOffset="0.00,0.00" convBoundary="699.87,318.57,893.98,553.36" origBoundary="699.87,318.57,893.98,553.36" projParameter="!"/>

    <type id="highway.bridleway" priority="1" speed="2.78" allow="pedestrian" oneway="1" width="2.00"/>
    <type id="highway.bus_guideway" priority="1" speed="27.78" allow="bus" oneway="1"/>
    <type id="highway.cycleway" priority="1" speed="8.33" allow="bicycle" oneway="0" width="1.00"/>
    <type id="highway.footway" priority="1" speed="2.78" allow="pedestrian" oneway="1" width="2.00"/>
    <type id="highway.ford" priority="1" speed="2.78" allow="army" oneway="0"/>
    <type id="highway.living_street" priority="2" speed="2.78" disallow="tram rail_urban rail rail_electric rail_fast ship" oneway="0"/>
    <type id="highway.motorway" priority="14" speed="39.44" allow="private emergency authority army vip passenger hov taxi bus coach delivery truck trailer motorcycle evehicle custom1 custom2" oneway="1"/>
    <type id="highway.motorway_link" priority="9" speed="22.22" allow="private emergency authority army vip passenger hov taxi bus coach delivery truck trailer motorcycle evehicle custom1 custom2" oneway="1"/>
    <type id="highway.path" priority="1" speed="2.78" allow="pedestrian bicycle" oneway="0" width="2.00"/>
    <type id="highway.pedestrian" priority="1" speed="2.78" allow="pedestrian" oneway="1" width="2.00"/>
    <type id="highway.primary" priority="12" speed="27.78" disallow="pedestrian tram rail_urban rail rail_electric rail_fast ship" oneway="0"/>
    <type id="highway.primary_link" priority="7" speed="22.22" disallow="pedestrian tram rail_urban rail rail_electric rail_fast ship" oneway="0"/>
    <type id="highway.raceway" priority="15" speed="83.33" allow="vip" oneway="0"/>
    <type id="highway.residential" priority="3" speed="13.89" disallow="pedestrian tram rail_urban rail rail_electric rail_fast ship" oneway="0"/>
    <type id="highway.secondary" priority="11" speed="27.78" disallow="pedestrian tram rail_urban rail rail_electric rail_fast ship" oneway="0"/>
    <type id="highway.secondary_link" priority="6" speed="22.22" disallow="pedestrian tram rail_urban rail rail_electric rail_fast ship" oneway="0"/>
    <type id="highway.service" priority="1" speed="5.56" allow="pedestrian delivery bicycle" oneway="0"/>
    <type id="highway.stairs" priority="1" speed="1.39" allow="pedestrian" oneway="1" width="2.00"/>
    <type id="highway.step" priority="1" speed="1.39" allow="pedestrian" oneway="1" width="2.00"/>
    <type id="highway.steps" priority="1" speed="1.39" allow="pedestrian" oneway="1" width="2.00"/>
    <type id="highway.tertiary" priority="10" speed="22.22" disallow="pedestrian tram rail_urban rail rail_electric rail_fast ship" oneway="0"/>
    <type id="highway.tertiary_link" priority="5" speed="22.22" disallow="pedestrian tram rail_urban rail rail_electric rail_fast ship" oneway="0"/>
    <type id="highway.track" priority="1" speed="5.56" allow="pedestrian motorcycle moped bicycle" oneway="0"/>
    <type id="highway.trunk" priority="13" speed="27.78" disallow="pedestrian bicycle tram rail_urban rail rail_electric rail_fast ship" oneway="0"/>
    <type id="highway.trunk_link" priority="8" speed="22.22" disallow="pedestrian bicycle tram rail_urban rail rail_electric rail_fast ship" oneway="0"/>
    <type id="highway.unclassified" priority="4" speed="13.89" disallow="pedestrian tram rail_urban rail rail_electric rail_fast ship" oneway="0"/>
    <type id="highway.unsurfaced" priority="1" speed="8.33" disallow="tram rail_urban rail rail_electric rail_fast ship" oneway="0"/>
    <type id="railway.highspeed" priority="21" speed="69.44" allow="rail_fast" oneway="1"/>
    <type id="railway.light_rail" priority="19" speed="27.78" allow="rail_urban" oneway="1"/>
    <type id="railway.preserved" priority="16" speed="27.78" allow="rail" oneway="1"/>
    <type id="railway.rail" priority="20" speed="44.44" allow="rail" oneway="1"/>
    <type id="railway.subway" priority="18" speed="27.78" allow="rail_urban" oneway="1"/>
    <type id="railway.tram" priority="17" speed="13.89" allow="tram" oneway="1"/>

    <edge id=":28_0" function="internal">
        <lane id=":28_0_0" index="0" disallow="pedestrian tram rail_urban rail rail_electric rail_fast ship" speed="36.11" length="3.35" width="3.50" shape="848.79,344.51 848.77,344.26 848.76,344.04 848.75,343.83 848.74,343.65 848.74,343.48 848.73,343.32 848.73,343.18 848.73,343.04 848.73,342.91 848.74,342.78 848.74,342.64 848.75,342.51 848.76,342.36 848.77,342.20 848.78,342.04 848.79,341.85 848.80,341.65 848.81,341.42 848.83,341.17"/>
    </edge>
    <edge id=":29_0" function="internal">
        <lane id=":29_0_0" index="0" disallow="pedestrian tram rail_urban rail rail_electric rail_fast ship" speed="36.11" length="2.99" width="3.50" shape="780.48,493.24 779.03,495.85"/>
    </edge>
    <edge id=":33_0" function="internal">
        <lane id=":33_0_0" index="0" disallow="pedestrian tram rail_urban rail rail_electric rail_fast ship" speed="36.11" length="0.10" width="3.50" shape="852.24,342.87 852.24,342.87"/>
    </edge>
    <edge id=":36_0" function="internal">
        <lane id=":36_0_0" index="0" disallow="pedestrian tram rail_urban rail rail_electric rail_fast ship" speed="36.11" length="2.99" width="3.50" shape="775.99,494.13 777.44,491.51"/>
    </edge>
    <edge id=":41_0" function="internal">
        <lane id=":41_0_0" index="0" disallow="pedestrian tram rail_urban rail rail_electric rail_fast ship" speed="36.11" length="33.48" width="3.50" shape="825.25,466.08 807.63,468.44 792.03,470.20"/>
    </edge>
    <edge id=":41_1" function="internal">
        <lane id=":41_1_0" index="0" disallow="pedestrian tram rail_urban rail rail_electric rail_fast ship" speed="12.44" length="34.51" width="3.50" shape="825.25,466.08 821.54,466.40 819.00,466.35 816.46,466.01 813.94,465.36 811.56,464.35 810.38,463.68 809.29,462.93 808.24,462.08 806.44,460.23 804.91,458.13 803.67,455.90 802.69,453.57 801.91,451.18 801.07,447.59"/>
    </edge>
    <edge id=":41_2" function="internal">
        <lane id=":41_2_0" index="0" disallow="pedestrian tram rail_urban rail rail_electric rail_fast ship" speed="11.45" length="29.09" width="3.50" shape="804.51,446.95 805.24,450.10 805.91,452.15 806.75,454.14 807.78,456.02 809.05,457.77 810.54,459.32 811.37,460.00 812.26,460.62 813.19,461.16 815.17,462.01 817.25,462.56 819.39,462.84 821.54,462.89 824.76,462.62"/>
    </edge>
    <edge id=":41_3" function="internal">
        <lane id=":41_3_0" index="0" disallow="pedestrian tram rail_urban rail rail_electric rail_fast ship" speed="11.23" length="30.68" width="3.50" shape="804.51,446.95 805.09,450.91 805.27,453.57 805.24,456.24 804.94,458.89 804.66,460.20 804.28,461.48 803.79,462.72 803.19,463.91 802.46,465.02 801.60,466.05 800.64,466.96 799.57,467.76 798.42,468.44 797.21,469.00 795.95,469.44 793.35,470.03 792.03,470.20"/>
    </edge>
    <edge id=":41_4" function="internal">
        <lane id=":41_4_0" index="0" disallow="pedestrian tram rail_urban rail rail_electric rail_fast ship" speed="10.13" length="24.80" width="3.50" shape="791.66,466.72 792.72,466.59 794.87,466.09 795.82,465.73 796.75,465.29 797.61,464.76 798.39,464.14 799.10,463.43 799.71,462.64 800.24,461.78 800.68,460.85 801.04,459.86 801.32,458.83 801.52,457.79 801.74,455.56 801.75,453.30 801.58,451.03 801.07,447.59"/>
    </edge>
    <edge id=":41_5" function="internal">
        <lane id=":41_5_0" index="0" disallow="pedestrian tram rail_urban rail rail_electric rail_fast ship" speed="36.11" length="33.35" width="3.50" shape="791.66,466.72 807.21,464.97 824.76,462.62"/>
    </edge>
    <edge id=":42_0" function="internal">
        <lane id=":42_0_0" index="0" disallow="pedestrian tram rail_urban rail rail_electric rail_fast ship" speed="36.11" length="36.11" width="3.50" shape="796.43,422.44 795.14,416.37 793.30,409.39 790.55,400.52 787.13,390.78 786.06,387.90"/>
    </edge>
    <edge id=":42_1" function="internal">
        <lane id=":42_1_0" index="0" disallow="pedestrian tram rail_urban rail rail_electric rail_fast ship" speed="12.53" length="33.51" width="3.50" shape="796.43,422.44 795.93,418.59 795.85,416.02 796.04,413.44 796.52,410.91 797.34,408.47 798.52,406.18 799.23,405.11 800.91,403.15 802.85,401.46 804.99,400.02 807.27,398.82 809.65,397.84 812.10,397.04"/>
    </edge>
    <edge id=":42_2" function="internal">
        <lane id=":42_2_0" index="0" disallow="pedestrian tram rail_urban rail rail_electric rail_fast ship" speed="11.55" length="28.31" width="3.50" shape="813.07,400.40 810.93,401.10 808.87,401.95 806.93,402.97 805.13,404.17 803.52,405.58 802.12,407.21 801.58,408.03 800.60,409.93 799.92,411.95 799.52,414.06 799.37,416.24 799.43,418.44 799.87,421.81"/>
    </edge>
    <edge id=":42_3" function="internal">
        <lane id=":42_3_0" index="0" disallow="pedestrian tram rail_urban rail rail_electric rail_fast ship" speed="12.42" length="33.46" width="3.50" shape="813.07,400.40 809.45,401.26 806.94,401.62 804.39,401.76 801.82,401.61 799.25,401.13 796.79,400.30 795.55,399.72 794.41,399.05 793.29,398.27 791.34,396.56 789.65,394.58 788.22,392.45 787.03,390.20 786.06,387.90"/>
    </edge>
    <edge id=":42_4" function="internal">
        <lane id=":42_4_0" index="0" disallow="pedestrian tram rail_urban rail rail_electric rail_fast ship" speed="11.44" length="28.20" width="3.50" shape="789.32,386.65 790.17,388.64 791.18,390.56 792.39,392.36 793.81,394.00 795.45,395.43 796.34,396.04 797.28,396.58 798.26,397.04 800.32,397.73 802.46,398.11 804.62,398.22 806.79,398.11 808.94,397.79 812.10,397.04"/>
    </edge>
    <edge id=":42_5" function="internal">
        <lane id=":42_5_0" index="0" disallow="pedestrian tram rail_urban rail rail_electric rail_fast ship" speed="36.11" length="36.75" width="3.50" shape="789.32,386.65 790.43,389.59 793.89,399.46 796.68,408.47 798.55,415.60 799.87,421.81"/>
    </edge>
    <edge id=":43_0" function="internal">
        <lane id=":43_0_0" index="0" disallow="pedestrian tram rail_urban rail rail_electric rail_fast ship" speed="36.11" length="39.77" width="3.50" shape="880.39,381.88 859.71,387.15 841.95,392.08"/>
    </edge>
    <edge id=":43_1" function="internal">
        <lane id=":43_1_0" index="0" disallow="pedestrian tram rail_urban rail rail_electric rail_fast ship" speed="12.54" length="35.66" width="3.50" shape="880.39,381.88 875.00,383.10 872.40,383.39 869.79,383.40 867.19,383.07 865.92,382.76 864.68,382.35 863.47,381.83 862.32,381.21 861.23,380.49 860.20,379.68 858.35,377.83 856.79,375.73 855.48,373.46 854.40,371.08 853.13,367.32"/>
    </edge>
    <edge id=":43_2" function="internal">
        <lane id=":43_2_0" index="0" disallow="pedestrian tram rail_urban rail rail_electric rail_fast ship" speed="11.37" length="28.24" width="3.50" shape="856.50,366.41 856.99,368.04 857.56,369.56 858.19,370.98 858.90,372.29 859.68,373.48 860.53,374.57 861.45,375.56 862.44,376.43 863.51,377.20 864.65,377.85 865.85,378.40 867.14,378.84 868.49,379.17 869.91,379.40 871.41,379.51 872.98,379.52 874.62,379.42 876.33,379.21 878.12,378.89"/>
    </edge>
    <edge id=":43_3" function="internal">
        <lane id=":43_3_0" index="0" disallow="pedestrian tram rail_urban rail rail_electric rail_fast ship" speed="12.21" length="33.87" width="3.50" shape="856.49,366.37 857.37,370.20 857.69,372.79 857.72,375.39 857.42,377.98 857.13,379.25 856.74,380.49 856.24,381.69 855.64,382.84 854.94,383.94 854.15,384.98 853.27,385.94 851.32,387.66 849.15,389.10 846.84,390.29 844.43,391.28 841.95,392.08"/>
    </edge>
    <edge id=":43_4" function="internal">
        <lane id=":43_4_0" index="0" disallow="pedestrian tram rail_urban rail rail_electric rail_fast ship" speed="11.20" length="28.33" width="3.50" shape="840.96,388.72 843.13,388.02 845.21,387.17 847.18,386.16 848.99,384.96 850.62,383.53 851.31,382.77 851.94,381.95 852.50,381.07 852.99,380.15 853.39,379.18 853.70,378.19 853.94,377.19 854.19,375.03 854.16,372.85 853.90,370.66 853.13,367.32"/>
    </edge>
    <edge id=":43_5" function="internal">
        <lane id=":43_5_0" index="0" disallow="pedestrian tram rail_urban rail rail_electric rail_fast ship" speed="36.11" length="38.44" width="3.50" shape="840.98,388.72 878.12,378.82"/>
    </edge>
    <edge id=":45_0" function="internal">
        <lane id=":45_0_0" index="0" disallow="pedestrian tram rail_urban rail rail_electric rail_fast ship" speed="7.12" length="10.05" width="3.49" shape="791.77,470.23 790.80,470.36 789.84,470.57 788.91,470.87 788.03,471.30 787.24,471.89 786.62,472.64 786.21,473.52 786.01,474.48 786.02,476.70"/>
    </edge>
    <edge id=":45_1" function="internal">
        <lane id=":45_1_0" index="0" disallow="pedestrian tram rail_urban rail rail_electric rail_fast ship" speed="36.11" length="21.93" width="3.50" shape="791.77,470.23 780.86,471.26 769.94,472.28"/>
    </edge>
    <edge id=":45_2" function="internal">
        <lane id=":45_2_0" index="0" disallow="pedestrian tram rail_urban rail rail_electric rail_fast ship" speed="36.11" length="21.88" width="3.50" shape="769.62,468.80 780.53,467.77 791.40,466.75"/>
    </edge>
    <edge id=":45_3" function="internal">
        <lane id=":45_3_0" index="0" disallow="pedestrian tram rail_urban rail rail_electric rail_fast ship" speed="9.33" length="20.99" width="3.49" shape="769.62,468.80 773.86,468.58 776.69,468.68 779.48,469.08 780.84,469.45 782.15,469.98 783.37,470.69 784.43,471.62 785.24,472.77 785.77,474.07 786.02,476.70"/>
    </edge>
    <edge id=":45_4" function="internal">
        <lane id=":45_4_0" index="0" disallow="pedestrian tram rail_urban rail rail_electric rail_fast ship" speed="8.08" length="15.43" width="3.50" shape="782.52,476.94 782.43,475.04 782.12,474.35 781.57,473.74 780.84,473.25 779.97,472.87 779.00,472.57 777.98,472.35 775.73,472.11 773.45,472.08 769.94,472.28"/>
    </edge>
    <edge id=":45_5" function="internal">
        <lane id=":45_5_0" index="0" disallow="pedestrian tram rail_urban rail rail_electric rail_fast ship" speed="8.70" length="15.47" width="3.50" shape="782.52,476.94 782.52,474.16 782.80,472.55 783.45,470.98 784.48,469.60 785.76,468.53 787.16,467.77 788.59,467.27 790.01,466.94 791.40,466.75"/>
    </edge>

    <edge id="31593" from="33" to="43" priority="3" type="highway.residential" spreadType="center" length="24.00" shape="852.24,342.87 855.77,379.33">
        <lane id="31593_0" index="0" disallow="pedestrian tram rail_urban rail rail_electric rail_fast ship" speed="36.11" length="24.00" width="3.50" customShape="1" shape="852.24,342.87 852.25,343.87 852.54,348.36 853.26,353.30 854.42,358.68 856.50,366.41"/>
    </edge>
    <edge id="31594" from="43" to="28" priority="3" type="highway.residential" spreadType="center" length="23.28" shape="852.29,379.66 848.74,342.84">
        <lane id="31594_0" index="0" disallow="pedestrian tram rail_urban rail rail_electric rail_fast ship" speed="36.11" length="23.28" width="3.50" customShape="1" shape="853.13,367.32 851.00,359.41 849.80,353.83 849.06,348.66 848.79,344.51"/>
    </edge>
    <edge id="31669" from="42" to="41" priority="3" type="highway.residential" spreadType="center" length="25.57" shape="801.20,402.44 808.28,459.81">
        <lane id="31669_0" index="0" disallow="pedestrian tram rail_urban rail rail_electric rail_fast ship" speed="36.11" length="25.57" width="3.50" customShape="1" shape="799.87,421.81 802.19,434.37 804.51,446.96"/>
    </edge>
    <edge id="31670" from="41" to="42" priority="3" type="highway.residential" spreadType="center" length="25.58" shape="804.81,460.24 797.73,402.87">
        <lane id="31670_0" index="0" disallow="pedestrian tram rail_urban rail rail_electric rail_fast ship" speed="36.11" length="25.58" width="3.50" customShape="1" shape="801.07,447.59 798.75,435.01 796.43,422.43"/>
    </edge>
    <edge id="31672" from="25" to="42" priority="3" type="highway.residential" spreadType="center" length="70.03" shape="777.60,318.57 801.17,402.26">
        <lane id="31672_0" index="0" disallow="pedestrian tram rail_urban rail rail_electric rail_fast ship" speed="36.11" length="70.03" width="3.50" customShape="1" shape="777.60,318.57 777.48,319.76 776.96,325.67 776.57,331.10 776.55,336.55 776.88,341.98 777.53,347.39 778.63,353.73 779.97,359.51 781.74,365.70 784.11,372.74 789.33,386.68"/>
    </edge>
    <edge id="31673" from="42" to="11" priority="3" type="highway.residential" spreadType="center" length="69.99" shape="797.80,403.22 773.98,319.85">
        <lane id="31673_0" index="0" disallow="pedestrian tram rail_urban rail rail_electric rail_fast ship" speed="36.11" length="69.99" width="3.50" customShape="1" shape="786.06,387.90 780.67,373.52 778.23,366.20 776.42,359.73 775.06,353.67 773.95,347.04 773.32,341.37 773.03,335.66 773.13,329.94 773.59,324.30 773.98,319.85"/>
    </edge>
    <edge id="31715" from="41" to="45" priority="3" type="highway.residential" spreadType="center" length="0.27" shape="807.28,461.61 782.51,473.17">
        <lane id="31715_0" index="0" disallow="pedestrian tram rail_urban rail rail_electric rail_fast ship" speed="36.11" length="0.27" width="3.50" customShape="1" shape="792.03,470.20 791.90,470.22 791.76,470.23"/>
    </edge>
    <edge id="31716" from="45" to="41" priority="3" type="highway.residential" spreadType="center" length="0.28" shape="781.04,470.01 805.80,458.44">
        <lane id="31716_0" index="0" disallow="pedestrian tram rail_urban rail rail_electric rail_fast ship" speed="36.11" length="0.28" width="3.50" customShape="1" shape="791.40,466.75 791.55,466.73 791.68,466.72"/>
    </edge>
    <edge id="31718" from="19" to="41" priority="3" type="highway.residential" spreadType="center" length="70.00" shape="893.98,453.33 806.68,461.77">
        <lane id="31718_0" index="0" disallow="pedestrian tram rail_urban rail rail_electric rail_fast ship" speed="36.11" length="70.00" width="3.50" customShape="1" shape="893.98,453.33 885.67,455.40 870.97,458.83 858.64,461.34 851.67,462.37 825.22,466.09"/>
    </edge>
    <edge id="31719" from="41" to="14" priority="3" type="highway.residential" spreadType="center" length="70.00" shape="806.34,458.29 893.52,449.83">
        <lane id="31719_0" index="0" disallow="pedestrian tram rail_urban rail rail_electric rail_fast ship" speed="36.11" length="70.00" width="3.50" customShape="1" shape="824.76,462.62 851.13,458.91 858.04,457.90 870.28,455.40 884.92,451.98 893.52,449.83"/>
    </edge>
    <edge id="31858" from="36" to="45" priority="3" type="highway.residential" spreadType="center" length="15.58" shape="776.72,492.82 780.18,471.13">
        <lane id="31858_0" index="0" disallow="pedestrian tram rail_urban rail rail_electric rail_fast ship" speed="36.11" length="15.58" width="3.50" customShape="1" shape="777.44,491.51 778.72,489.17 780.45,485.44 781.50,482.61 782.25,479.72 782.51,477.84 782.52,476.94"/>
    </edge>
    <edge id="31861" from="37" to="36" priority="3" type="highway.residential" spreadType="center" length="68.50">
        <lane id="31861_0" index="0" disallow="pedestrian tram rail_urban rail rail_electric rail_fast ship" speed="36.11" length="68.50" width="3.50" customShape="1" shape="740.49,551.45 745.63,547.24 749.36,543.81 752.46,540.46 755.27,536.87 757.24,533.91 759.42,529.91 761.35,525.77 762.95,521.50 763.85,518.06 764.71,515.68 766.57,511.51 770.75,503.40 775.99,494.13"/>
    </edge>
    <edge id="31862" from="29" to="30" priority="3" type="highway.residential" spreadType="center" length="68.51">
        <lane id="31862_0" index="0" disallow="pedestrian tram rail_urban rail rail_electric rail_fast ship" speed="36.11" length="68.51" width="3.50" customShape="1" shape="779.03,495.85 773.82,505.07 769.69,513.08 767.90,517.12 767.11,519.39 766.20,522.82 764.54,527.22 762.57,531.45 760.34,535.55 758.32,538.63 755.45,542.33 752.31,545.81 748.53,549.35 743.71,553.36"/>
    </edge>
    <edge id="31963" from="34" to="43" priority="3" type="highway.residential" spreadType="center" length="2.35" shape="882.67,381.33 853.90,381.16">
        <lane id="31963_0" index="0" disallow="pedestrian tram rail_urban rail rail_electric rail_fast ship" speed="36.11" length="2.35" width="3.50" customShape="1" shape="882.67,381.33 880.39,381.88"/>
    </edge>
    <edge id="31965" from="42" to="43" priority="3" type="highway.residential" spreadType="center" length="30.05" shape="798.79,401.10 853.38,377.78">
        <lane id="31965_0" index="0" disallow="pedestrian tram rail_urban rail rail_electric rail_fast ship" speed="36.11" length="30.05" width="3.50" customShape="1" shape="812.10,397.04 826.54,392.88 840.98,388.72"/>
    </edge>
    <edge id="31966" from="43" to="42" priority="3" type="highway.residential" spreadType="center" length="30.06" shape="854.75,381.00 800.16,404.31">
        <lane id="31966_0" index="0" disallow="pedestrian tram rail_urban rail rail_electric rail_fast ship" speed="36.11" length="30.06" width="3.50" customShape="1" shape="841.95,392.08 827.51,396.24 813.06,400.40"/>
    </edge>
    <edge id="32063" from="45" to="23" priority="3" type="highway.residential" spreadType="center" length="70.00" shape="782.02,473.29 700.18,478.06">
        <lane id="32063_0" index="0" disallow="pedestrian tram rail_urban rail rail_electric rail_fast ship" speed="36.11" length="70.00" width="3.50" customShape="1" shape="769.94,472.28 733.89,475.53 702.30,477.92 700.18,478.06"/>
    </edge>
    <edge id="32064" from="31" to="45" priority="3" type="highway.residential" spreadType="center" length="70.00" shape="699.87,474.57 781.81,469.80">
        <lane id="32064_0" index="0" disallow="pedestrian tram rail_urban rail rail_electric rail_fast ship" speed="36.11" length="70.00" width="3.50" customShape="1" shape="699.87,474.57 702.06,474.43 733.61,472.04 769.63,468.79"/>
    </edge>
    <edge id="35295" from="43" to="44" priority="3" type="highway.residential" spreadType="center" length="0.19" shape="854.00,377.66 876.76,379.17">
        <lane id="35295_0" index="0" disallow="pedestrian tram rail_urban rail rail_electric rail_fast ship" speed="36.11" length="0.19" width="3.50" customShape="1" shape="878.12,378.89 878.31,378.85"/>
    </edge>
    <edge id="35296" from="28" to="32" priority="3" type="highway.residential" spreadType="center" length="31.58">
        <lane id="35296_0" index="0" disallow="pedestrian tram rail_urban rail rail_electric rail_fast ship" speed="36.11" length="31.58" width="3.50" customShape="1" shape="848.83,341.17 848.93,339.15 849.32,336.63 849.98,334.15 850.95,331.74 852.24,329.47 853.88,327.40 855.80,325.61 857.95,324.13 860.25,322.96 862.64,322.06 865.09,321.40 868.72,320.79"/>
    </edge>
    <edge id="35356" from="35" to="33" priority="3" type="highway.residential" spreadType="center" length="28.16">
        <lane id="35356_0" index="0" disallow="pedestrian tram rail_urban rail rail_electric rail_fast ship" speed="36.11" length="28.16" width="3.50" customShape="1" shape="869.15,324.26 865.96,324.80 863.87,325.36 861.84,326.12 859.90,327.10 858.12,328.33 856.53,329.80 855.18,331.50 854.10,333.38 853.30,335.39 852.74,337.48 852.40,339.62 852.24,342.87"/>
    </edge>
    <edge id="35902" from="43" to="44" priority="3" type="highway.residential" spreadType="center" length="0.21">
        <lane id="35902_0" index="0" disallow="pedestrian tram rail_urban rail rail_electric rail_fast ship" speed="36.11" length="0.21" width="3.50" customShape="1" shape="878.12,378.82 878.32,378.77"/>
    </edge>
    <edge id="36025" from="45" to="29" priority="3" type="highway.residential" spreadType="center" length="17.63" shape="783.61,471.70 779.77,494.55">
        <lane id="36025_0" index="0" disallow="pedestrian tram rail_urban rail rail_electric rail_fast ship" speed="36.11" length="17.63" width="3.49" customShape="1" shape="786.02,476.70 786.01,477.95 785.72,480.17 784.91,483.42 783.77,486.57 781.90,490.63 780.48,493.24"/>
    </edge>

    <junction id="11" type="dead_end" x="773.98" y="319.85" incLanes="31673_0" intLanes="" shape="772.24,319.69 775.72,320.00" rightOfWay="edgePriority"/>
    <junction id="14" type="dead_end" x="893.52" y="449.83" incLanes="31719_0" intLanes="" shape="893.10,448.14 893.94,451.53" rightOfWay="edgePriority"/>
    <junction id="19" type="dead_end" x="893.98" y="453.33" incLanes="" intLanes="" shape="893.56,451.63 894.40,455.02" rightOfWay="edgePriority"/>
    <junction id="23" type="dead_end" x="700.18" y="478.06" incLanes="32063_0" intLanes="" shape="700.29,479.81 700.06,476.31" rightOfWay="edgePriority"/>
    <junction id="25" type="dead_end" x="777.60" y="318.57" incLanes="" intLanes="" shape="775.86,318.39 779.34,318.75" rightOfWay="edgePriority"/>
    <junction id="28" type="priority" x="848.74" y="342.84" incLanes="31594_0" intLanes=":28_0_0" shape="847.04,344.53 850.54,344.49 850.49,343.30 850.49,342.88 850.51,342.46 850.57,341.26 847.08,341.08 847.00,342.36 846.98,342.81 846.98,343.26 847.00,343.80" rightOfWay="edgePriority">
        <request index="0" response="0" foes="0" cont="0"/>
    </junction>
    <junction id="29" type="priority" x="779.77" y="494.55" incLanes="36025_0" intLanes=":29_0_0" shape="782.01,494.08 778.95,492.41 777.51,494.99 780.55,496.71" rightOfWay="edgePriority">
        <request index="0" response="0" foes="0" cont="0"/>
    </junction>
    <junction id="30" type="dead_end" x="743.71" y="553.36" incLanes="31862_0" intLanes="" shape="744.83,554.70 742.59,552.01" rightOfWay="edgePriority"/>
    <junction id="31" type="dead_end" x="699.87" y="474.57" incLanes="" intLanes="" shape="699.99,476.32 699.76,472.83" rightOfWay="edgePriority"/>
    <junction id="32" type="dead_end" x="868.72" y="320.79" incLanes="35296_0" intLanes="" shape="868.43,319.07 869.01,322.52" rightOfWay="edgePriority"/>
    <junction id="33" type="priority" x="852.24" y="342.87" incLanes="35356_0" intLanes=":33_0_0" shape="850.49,342.94 853.99,342.90 850.50,342.72" rightOfWay="edgePriority">
        <request index="0" response="0" foes="0" cont="0"/>
    </junction>
    <junction id="34" type="dead_end" x="882.67" y="381.33" incLanes="" intLanes="" shape="882.26,379.63 883.09,383.02" rightOfWay="edgePriority"/>
    <junction id="35" type="dead_end" x="869.15" y="324.26" incLanes="" intLanes="" shape="868.86,322.54 869.44,325.99" rightOfWay="edgePriority"/>
    <junction id="36" type="priority" x="776.72" y="492.82" incLanes="31861_0" intLanes=":36_0_0" shape="778.97,492.35 775.91,490.67 774.47,493.26 777.51,494.99" rightOfWay="edgePriority">
        <request index="0" response="0" foes="0" cont="0"/>
    </junction>
    <junction id="37" type="dead_end" x="740.49" y="551.45" incLanes="" intLanes="" shape="741.59,552.80 739.38,550.09" rightOfWay="edgePriority"/>
    <junction id="41" type="priority" x="806.54" y="460.03" incLanes="31718_0 31669_0 31716_0" intLanes=":41_0_0 :41_1_0 :41_2_0 :41_3_0 :41_4_0 :41_5_0" shape="825.49,467.82 824.52,460.88 819.77,461.08 815.71,460.25 812.32,458.39 809.61,455.51 807.58,451.59 806.23,446.64 799.35,447.91 799.96,452.83 799.80,456.92 798.87,460.19 797.18,462.62 794.72,464.21 791.51,464.98 792.21,471.95">
        <request index="0" response="000000" foes="001000" cont="0"/>
        <request index="1" response="110000" foes="111000" cont="0"/>
        <request index="2" response="100000" foes="100000" cont="0"/>
        <request index="3" response="100011" foes="100011" cont="0"/>
        <request index="4" response="000000" foes="000010" cont="0"/>
        <request index="5" response="000000" foes="001110" cont="0"/>
    </junction>
    <junction id="42" type="priority" x="799.48" y="402.70" incLanes="31670_0 31966_0 31672_0" intLanes=":42_0_0 :42_1_0 :42_2_0 :42_3_0 :42_4_0 :42_5_0" shape="794.71,422.76 801.59,421.49 801.15,416.74 801.68,412.60 803.18,409.06 805.67,406.13 809.12,403.80 813.56,402.08 811.62,395.36 806.74,396.34 802.44,396.31 798.71,395.27 795.56,393.21 792.98,390.14 790.97,386.06 784.42,388.52 787.13,395.65 789.15,400.93 790.70,405.32 791.99,409.79 793.26,415.28">
        <request index="0" response="000000" foes="001000" cont="0"/>
        <request index="1" response="110000" foes="111000" cont="0"/>
        <request index="2" response="100000" foes="100000" cont="0"/>