<!-- generated on 2020-12-18 16:20:52.144220 by ipykernel_launcher.py v1_2_0+5214-53edc58fcd
-->
<connections>
	<connection contPos="-4.0" from="3543" fromLane="0" keepClear="true" to="3599" toLane="0"/>
	<connection contPos="-4.0" from="3544" fromLane="0" keepClear="true" to="3598" toLane="0"/>
	<connection contPos="-4.0" from="3544" fromLane="0" keepClear="true" to="3594" toLane="0"/>
	<connection contPos="-4.0" from="3545" fromLane="0" keepClear="true" to="3628" toLane="0"/>
	<connection contPos="-4.0" from="3545" fromLane="0" keepClear="true" to="3596" toLane="0"/>
	<connection contPos="-4.0" from="3547" fromLane="0" keepClear="true" to="3625" toLane="0"/>
	<connection contPos="-4.0" from="3547" fromLane="0" keepClear="true" to="3607" toLane="0"/>
	<connection contPos="-4.0" from="3548" fromLane="0" keepClear="true" to="3587" toLane="0"/>
	<connection contPos="-4.0" from="3548" fromLane="0" keepClear="true" to="3591" toLane="0"/>
	<connection contPos="-4.0" from="3549" fromLane="0" keepClear="true" to="3614" toLane="0"/>
	<connection contPos="-4.0" from="3550" fromLane="0" keepClear="true" to="3631" toLane="0"/>
	<connection contPos="-4.0" from="3550" fromLane="0" keepClear="true" to="3619" toLane="0"/>
	<connection contPos="-4.0" from="3552" fromLane="0" keepClear="true" to="3616" toLane="0"/>
	<connection contPos="-4.0" from="3552" fromLane="0" keepClear="true" to="3595" toLane="0"/>
	<connection contPos="-4.0" from="3553" fromLane="0" keepClear="true" to="3612" toLane="0"/>
	<connection contPos="-4.0" from="3553" fromLane="0" keepClear="true" to="3624" toLane="0"/>
	<connection contPos="-4.0" from="3555" fromLane="0" keepClear="true" to="3623" toLane="0"/>
	<connection contPos="-4.0" from="3555" fromLane="0" keepClear="true" to="3585" toLane="0"/>
	<connection contPos="-4.0" from="3556" fromLane="0" keepClear="true" to="3632" toLane="0"/>
	<connection contPos="-4.0" from="3556" fromLane="0" keepClear="true" to="3580" toLane="0"/>
	<connection contPos="-4.0" from="3556" fromLane="0" keepClear="true" to="3604" toLane="0"/>
	<connection contPos="-4.0" from="3558" fromLane="0" keepClear="true" to="3588" toLane="0"/>
	<connection contPos="-4.0" from="3559" fromLane="0" keepClear="true" to="3609" toLane="0"/>
	<connection contPos="-4.0" from="3561" fromLane="0" keepClear="true" to="3617" toLane="0"/>
	<connection contPos="-4.0" from="3561" fromLane="0" keepClear="true" to="3630" toLane="0"/>
	<connection contPos="-4.0" from="3564" fromLane="0" keepClear="true" to="3597" toLane="0"/>
	<connection contPos="-4.0" from="3564" fromLane="0" keepClear="true" to="3583" toLane="0"/>
	<connection contPos="-4.0" from="3565" fromLane="0" keepClear="true" to="3602" toLane="0"/>
	<connection contPos="-4.0" from="3565" fromLane="0" keepClear="true" to="3586" toLane="0"/>
	<connection contPos="-4.0" from="3566" fromLane="0" keepClear="true" to="3626" toLane="0"/>
	<connection contPos="-4.0" from="3566" fromLane="0" keepClear="true" to="3601" toLane="0"/>
	<connection contPos="-4.0" from="3567" fromLane="0" keepClear="true" to="3627" toLane="0"/>
	<connection contPos="-4.0" from="3567" fromLane="0" keepClear="true" to="3584" toLane="0"/>
	<connection contPos="-4.0" from="3568" fromLane="0" keepClear="true" to="3610" toLane="0"/>
	<connection contPos="-4.0" from="3568" fromLane="0" keepClear="true" to="3592" toLane="0"/>
	<connection contPos="-4.0" from="3569" fromLane="0" keepClear="true" to="3589" toLane="0"/>
	<connection contPos="-4.0" from="3569" fromLane="0" keepClear="true" to="3620" toLane="0"/>
	<connection contPos="-4.0" from="3571" fromLane="0" keepClear="true" to="3582" toLane="0"/>
	<connection contPos="-4.0" from="3571" fromLane="0" keepClear="true" to="3622" toLane="0"/>
	<connection contPos="-4.0" from="3572" fromLane="0" keepClear="true" to="3611" toLane="0"/>
	<connection contPos="-4.0" from="3572" fromLane="0" keepClear="true" to="3600" toLane="0"/>
	<connection contPos="-4.0" from="3573" fromLane="0" keepClear="true" to="3613" toLane="0"/>
	<connection contPos="-4.0" from="3573" fromLane="0" keepClear="true" to="3581" toLane="0"/>
	<connection contPos="-4.0" from="3573" fromLane="0" keepClear="true" to="3633" toLane="0"/>
	<connection contPos="-4.0" from="3574" fromLane="0" keepClear="true" to="3618" toLane="0"/>
	<connection contPos="-4.0" from="3574" fromLane="0" keepClear="true" to="3615" toLane="0"/>
	<connection contPos="-4.0" from="3575" fromLane="0" keepClear="true" to="3621" toLane="0"/>
	<connection contPos="-4.0" from="3575" fromLane="0" keepClear="true" to="3593" toLane="0"/>
	<connection contPos="-4.0" from="3576" fromLane="0" keepClear="true" to="3603" toLane="0"/>
	<connection contPos="-4.0" from="3576" fromLane="0" keepClear="true" to="3608" toLane="0"/>
	<connection contPos="-4.0" from="3577" fromLane="0" keepClear="true" to="3590" toLane="0"/>
	<connection contPos="-4.0" from="3577" fromLane="0" keepClear="true" to="3605" toLane="0"/>
	<connection contPos="-4.0" from="3579" fromLane="0" keepClear="true" to="3606" toLane="0"/>
	<connection contPos="-4.0" from="3579" fromLane="0" keepClear="true" to="3629" toLane="0"/>
	<connection contPos="-4.0" from="3580" fromLane="0" keepClear="true" to="3551" toLane="0"/>
	<connection contPos="-4.0" from="3581" fromLane="0" keepClear="true" to="3566" toLane="0"/>
	<connection contPos="-4.0" from="3582" fromLane="0" keepClear="true" to="3545" toLane="0"/>
	<connection contPos="-4.0" from="3583" fromLane="0" keepClear="true" to="3553" toLane="0"/>
	<connection contPos="-4.0" from="3584" fromLane="0" keepClear="true" to="3578" toLane="0"/>
	<connection contPos="-4.0" from="3585" fromLane="0" keepClear="true" to="3567" toLane="0"/>
	<connection contPos="-4.0" from="3586" fromLane="0" keepClear="true" to="3561" toLane="0"/>
	<connection contPos="-4.0" from="3587" fromLane="0" keepClear="true" to="3546" toLane="0"/>
	<connection contPos="-4.0" from="3588" fromLane="0" keepClear="true" to="3556" toLane="0"/>
	<connection contPos="-4.0" from="3589" fromLane="0" keepClear="true" to="3563" toLane="0"/>
	<connection contPos="-4.0" from="3590" fromLane="0" keepClear="true" to="3560" toLane="0"/>
	<connection contPos="-4.0" from="3591" fromLane="0" keepClear="true" to="3544" toLane="0"/>
	<connection contPos="-4.0" from="3592" fromLane="0" keepClear="true" to="3554" toLane="0"/>
	<connection contPos="-4.0" from="3593" fromLane="0" keepClear="true" to="3551" toLane="0"/>
	<connection contPos="-4.0" from="3594" fromLane="0" keepClear="true" to="3572" toLane="0"/>
	<connection contPos="-4.0" from="3595" fromLane="0" keepClear="true" to="3563" toLane="0"/>
	<connection contPos="-4.0" from="3596" fromLane="0" keepClear="true" to="3546" toLane="0"/>
	<connection contPos="-4.0" from="3597" fromLane="0" keepClear="true" to="3570" toLane="0"/>
	<connection contPos="-4.0" from="3598" fromLane="0" keepClear="true" to="3565" toLane="0"/>
	<connection contPos="-4.0" from="3599" fromLane="0" keepClear="true" to="3573" toLane="0"/>
	<connection contPos="-4.0" from="3600" fromLane="0" keepClear="true" to="3578" toLane="0"/>
	<connection contPos="-4.0" from="3601" fromLane="0" keepClear="true" to="3545" toLane="0"/>
	<connection contPos="-4.0" from="3602" fromLane="0" keepClear="true" to="3552" toLane="0"/>
	<connection contPos="-4.0" from="3603" fromLane="0" keepClear="true" to="3573" toLane="0"/>
	<connection contPos="-4.0" from="3604" fromLane="0" keepClear="true" to="3562" toLane="0"/>
	<connection contPos="-4.0" from="3605" fromLane="0" keepClear="true" to="3548" toLane="0"/>
	<connection contPos="-4.0" from="3606" fromLane="0" keepClear="true" to="3568" toLane="0"/>
	<connection contPos="-4.0" from="3607" fromLane="0" keepClear="true" to="3549" toLane="0"/>
	<connection contPos="-4.0" from="3608" fromLane="0" keepClear="true" to="3542" toLane="0"/>
	<connection contPos="-4.0" from="3609" fromLane="0" keepClear="true" to="3548" toLane="0"/>
	<connection contPos="-4.0" from="3610" fromLane="0" keepClear="true" to="3575" toLane="0"/>
	<connection contPos="-4.0" from="3611" fromLane="0" keepClear="true" to="3568" toLane="0"/>
	<connection contPos="-4.0" from="3612" fromLane="0" keepClear="true" to="3561" toLane="0"/>
	<connection contPos="-4.0" from="3613" fromLane="0" keepClear="true" to="3552" toLane="0"/>
	<connection contPos="-4.0" from="3614" fromLane="0" keepClear="true" to="3560" toLane="0"/>
	<connection contPos="-4.0" from="3615" fromLane="0" keepClear="true" to="3567" toLane="0"/>
	<connection contPos="-4.0" from="3616" fromLane="0" keepClear="true" to="3570" toLane="0"/>
	<connection contPos="-4.0" from="3617" fromLane="0" keepClear="true" to="3556" toLane="0"/>
	<connection contPos="-4.0" from="3618" fromLane="0" keepClear="true" to="3554" toLane="0"/>
	<connection contPos="-4.0" from="3619" fromLane="0" keepClear="true" to="3574" toLane="0"/>
	<connection contPos="-4.0" from="3620" fromLane="0" keepClear="true" to="3553" toLane="0"/>
	<connection contPos="-4.0" from="3621" fromLane="0" keepClear="true" to="3562" toLane="0"/>
	<connection contPos="-4.0" from="3622" fromLane="0" keepClear="true" to="3565" toLane="0"/>
	<connection contPos="-4.0" from="3623" fromLane="0" keepClear="true" to="3575" toLane="0"/>
	<connection contPos="-4.0" from="3624" fromLane="0" keepClear="true" to="3566" toLane="0"/>
	<connection contPos="-4.0" from="3625" fromLane="0" keepClear="true" to="3544" toLane="0"/>
	<connection contPos="-4.0" from="3626" fromLane="0" keepClear="true" to="3572" toLane="0"/>
	<connection contPos="-4.0" from="3627" fromLane="0" keepClear="true" to="3571" toLane="0"/>
	<connection contPos="-4.0" from="3628" fromLane="0" keepClear="true" to="3549" toLane="0"/>
	<connection contPos="-4.0" from="3629" fromLane="0" keepClear="true" to="3571" toLane="0"/>
	<connection contPos="-4.0" from="3630" fromLane="0" keepClear="true" to="3557" toLane="0"/>
	<connection contPos="-4.0" from="3631" fromLane="0" keepClear="true" to="3562" toLane="0"/>
	<connection contPos="-4.0" from="3632" fromLane="0" keepClear="true" to="3574" toLane="0"/>
	<connection contPos="-4.0" from="3633" fromLane="0" keepClear="true" to="3561" toLane="0"/>
</connections>
