<?xml version="1.0" encoding="UTF-8"?>

<!-- generated on Fri Dec 18 16:20:52 2020 by Eclipse SUMO netconvert Version 1.8.0
<configuration xmlns:xsi="http://www.w3.org/2001/XMLSchema-instance" xsi:noNamespaceSchemaLocation="http://sumo.dlr.de/xsd/netconvertConfiguration.xsd">

    <input>
        <node-files value="./converted_scenarios/SUMO/DEU_Muc-12_1_I-1-1/nodes.net.xml"/>
        <edge-files value="./converted_scenarios/SUMO/DEU_Muc-12_1_I-1-1/edges.net.xml"/>
        <connection-files value="./converted_scenarios/SUMO/DEU_Muc-12_1_I-1-1/_connections.net.xml"/>
        <tllogic-files value="./converted_scenarios/SUMO/DEU_Muc-12_1_I-1-1/_tll.net.xml"/>
    </input>

    <output>
        <output-file value="./converted_scenarios/SUMO/DEU_Muc-12_1_I-1-1/DEU_Muc-12_1_I-1-1.net.xml"/>
    </output>

    <processing>
        <plain.extend-edge-shape value="true"/>
        <geometry.remove.keep-edges.explicit value="true"/>
        <geometry.avoid-overlap value="true"/>
        <offset.disable-normalization value="true"/>
    </processing>

    <junctions>
        <no-turnarounds value="true"/>
        <junctions.internal-link-detail value="20"/>
    </junctions>

    <report>
        <aggregate-warnings value="5"/>
    </report>

    <random_number>
        <seed value="1234"/>
    </random_number>

</configuration>
-->

<net version="1.6" junctionCornerDetail="5" junctionLinkDetail="20" limitTurnSpeed="5.50" xmlns:xsi="http://www.w3.org/2001/XMLSchema-instance" xsi:noNamespaceSchemaLocation="http://sumo.dlr.de/xsd/net_file.xsd">

    <location netOffset="0.00,0.00" convBoundary="-211.35,-243.05,137.13,223.78" origBoundary="-211.35,-243.05,137.13,223.78" projParameter="!"/>

    <edge id=":1_0" function="internal">
        <lane id=":1_0_0" index="0" disallow="bus truck rail_fast" speed="36.11" length="3.44" width="2.50" shape="-61.56,145.57 -61.31,145.65 -61.09,145.71 -60.89,145.77 -60.71,145.82 -60.54,145.87 -60.39,145.92 -60.25,145.97 -60.11,146.01 -59.98,146.05 -59.85,146.10 -59.72,146.14 -59.59,146.19 -59.45,146.24 -59.30,146.30 -59.14,146.36 -58.96,146.43 -58.76,146.51 -58.55,146.60 -58.31,146.69"/>
    </edge>
    <edge id=":12_0" function="internal">
        <lane id=":12_0_0" index="0" disallow="bus truck rail_fast" speed="7.45" length="9.02" width="2.49" shape="27.92,126.83 28.12,126.05 28.31,125.30 28.47,124.59 28.61,123.92 28.73,123.28 28.83,122.68 28.92,122.11 28.98,121.58 29.02,121.08 29.04,120.63 29.05,120.20 29.03,119.82 28.99,119.46 28.94,119.15 28.86,118.87 28.76,118.63 28.65,118.42 28.51,118.25 28.35,118.11"/>
    </edge>
    <edge id=":12_1" function="internal">
        <lane id=":12_1_0" index="0" disallow="bus truck rail_fast" speed="9.07" length="7.98" width="2.50" shape="27.92,126.83 28.08,126.24 28.25,125.68 28.42,125.14 28.59,124.62 28.76,124.14 28.94,123.67 29.13,123.24 29.31,122.82 29.50,122.44 29.70,122.07 29.89,121.74 30.09,121.42 30.30,121.14 30.51,120.88 30.72,120.64 30.93,120.43 31.15,120.24 31.38,120.08 31.60,119.95"/>
    </edge>
    <edge id=":13_0" function="internal">
        <lane id=":13_0_0" index="0" disallow="bus truck rail_fast" speed="36.11" length="6.76" width="2.50" shape="75.69,138.19 75.29,137.90 74.92,137.63 74.59,137.39 74.28,137.17 74.01,136.97 73.75,136.78 73.51,136.61 73.28,136.46 73.05,136.31 72.82,136.18 72.58,136.04 72.34,135.91 72.07,135.78 71.79,135.64 71.48,135.50 71.14,135.35 70.76,135.19 70.34,135.02 69.88,134.82"/>
    </edge>
    <edge id=":13_1" function="internal">
        <lane id=":13_1_0" index="0" disallow="bus truck rail_fast" speed="36.11" length="9.45" width="2.50" shape="78.76,138.01 78.08,137.81 77.47,137.62 76.92,137.45 76.43,137.30 75.97,137.15 75.55,137.02 75.17,136.89 74.80,136.76 74.44,136.63 74.09,136.51 73.74,136.37 73.37,136.23 72.99,136.08 72.58,135.92 72.14,135.74 71.66,135.55 71.12,135.33 70.53,135.09 69.88,134.82"/>
    </edge>
    <edge id=":14_0" function="internal">
        <lane id=":14_0_0" index="0" disallow="bus truck rail_fast" speed="6.17" length="8.03" width="2.50" shape="40.05,122.72 39.35,122.45 38.69,122.19 38.06,121.97 37.46,121.76 36.90,121.58 36.37,121.43 35.87,121.30 35.41,121.19 34.98,121.11 34.58,121.06 34.22,121.03 33.89,121.02 33.59,121.04 33.33,121.08 33.10,121.15 32.90,121.24 32.74,121.36 32.61,121.50 32.52,121.67"/>
    </edge>
    <edge id=":14_1" function="internal">
        <lane id=":14_1_0" index="0" disallow="rail_fast" speed="36.11" length="8.51" width="2.49" shape="40.05,122.72 32.18,119.49"/>
    </edge>
    <edge id=":15_0" function="internal">
        <lane id=":15_0_0" index="0" disallow="rail_fast" speed="36.11" length="8.52" width="2.50" shape="33.08,117.16 40.96,120.40"/>
    </edge>
    <edge id=":15_1" function="internal">
        <lane id=":15_1_0" index="0" disallow="bus truck rail_fast" speed="9.39" length="9.50" width="2.50" shape="31.78,119.85 32.14,119.67 32.52,119.52 32.91,119.38 33.31,119.27 33.72,119.19 34.15,119.12 34.60,119.08 35.05,119.07 35.52,119.07 36.01,119.10 36.50,119.15 37.01,119.23 37.54,119.32 38.07,119.44 38.62,119.59 39.19,119.76 39.77,119.95 40.36,120.16 40.96,120.40"/>
    </edge>
    <edge id=":16_0" function="internal">
        <lane id=":16_0_0" index="0" disallow="bus truck rail_fast" speed="36.11" length="2.94" width="2.50" shape="70.85,132.52 73.60,133.59"/>
    </edge>
    <edge id=":18_0" function="internal">
        <lane id=":18_0_0" index="0" disallow="bus truck rail_fast" speed="6.32" length="7.86" width="2.50" shape="4.65,-133.07 5.36,-132.77 6.02,-132.49 6.66,-132.24 7.25,-132.00 7.82,-131.79 8.35,-131.60 8.84,-131.43 9.30,-131.28 9.72,-131.15 10.11,-131.05 10.47,-130.96 10.79,-130.90 11.08,-130.86 11.33,-130.85 11.54,-130.85 11.72,-130.88 11.87,-130.92 11.98,-130.99 12.06,-131.08"/>
    </edge>
    <edge id=":18_1" function="internal">
        <lane id=":18_1_0" index="0" disallow="rail_fast" speed="36.11" length="8.05" width="2.50" shape="4.65,-133.07 12.08,-129.96"/>
    </edge>
    <edge id=":19_0" function="internal">
        <lane id=":19_0_0" index="0" disallow="bus truck rail_fast" speed="36.11" length="6.34" width="2.50" shape="9.17,-127.55 8.78,-127.82 8.43,-128.07 8.12,-128.29 7.83,-128.49 7.57,-128.68 7.33,-128.85 7.10,-129.01 6.88,-129.15 6.67,-129.29 6.45,-129.42 6.23,-129.55 6.01,-129.68 5.76,-129.81 5.50,-129.94 5.21,-130.08 4.90,-130.23 4.55,-130.39 4.16,-130.56 3.72,-130.75"/>
    </edge>
    <edge id=":19_1" function="internal">
        <lane id=":19_1_0" index="0" disallow="rail_fast" speed="36.11" length="7.77" width="2.50" shape="10.89,-127.75 3.72,-130.75"/>
    </edge>
    <edge id=":21_0" function="internal">
        <lane id=":21_0_0" index="0" disallow="bus truck rail_fast" speed="36.11" length="6.85" width="2.50" shape="-48.91,84.38 -49.31,84.06 -49.67,83.78 -50.00,83.52 -50.30,83.29 -50.57,83.08 -50.83,82.88 -51.07,82.71 -51.31,82.55 -51.54,82.40 -51.77,82.25 -52.00,82.12 -52.25,81.98 -52.52,81.85 -52.81,81.71 -53.12,81.56 -53.47,81.41 -53.85,81.25 -54.27,81.07 -54.75,80.88"/>
    </edge>
    <edge id=":21_1" function="internal">
        <lane id=":21_1_0" index="0" disallow="bus truck rail_fast" speed="36.11" length="8.50" width="2.50" shape="-46.92,84.19 -54.75,80.88"/>
    </edge>
    <edge id=":22_0" function="internal">
        <lane id=":22_0_0" index="0" disallow="bus truck rail_fast" speed="6.41" length="7.68" width="2.50" shape="-122.22,52.00 -122.84,51.73 -123.44,51.48 -124.01,51.26 -124.56,51.06 -125.07,50.88 -125.56,50.73 -126.02,50.60 -126.46,50.50 -126.86,50.41 -127.24,50.36 -127.60,50.33 -127.92,50.32 -128.22,50.33 -128.49,50.37 -128.73,50.44 -128.95,50.53 -129.14,50.64 -129.30,50.78 -129.43,50.94"/>
    </edge>
    <edge id=":22_1" function="internal">
        <lane id=":22_1_0" index="0" disallow="rail_fast" speed="36.11" length="8.80" width="2.50" shape="-122.22,52.00 -130.23,48.38"/>
    </edge>
    <edge id=":23_0" function="internal">
        <lane id=":23_0_0" index="0" disallow="rail_fast" speed="36.11" length="8.75" width="2.50" shape="-129.19,46.11 -121.22,49.71"/>
    </edge>
    <edge id=":23_1" function="internal">
        <lane id=":23_1_0" index="0" disallow="bus truck rail_fast" speed="9.95" length="9.26" width="2.50" shape="-130.19,48.91 -129.79,48.76 -129.38,48.64 -128.96,48.53 -128.53,48.45 -128.10,48.39 -127.65,48.34 -127.21,48.32 -126.75,48.32 -126.28,48.34 -125.81,48.38 -125.33,48.45 -124.84,48.53 -124.35,48.64 -123.85,48.76 -123.33,48.91 -122.82,49.08 -122.29,49.27 -121.76,49.48 -121.22,49.71"/>
    </edge>
    <edge id=":24_0" function="internal">
        <lane id=":24_0_0" index="0" disallow="bus truck rail_fast" speed="6.92" length="9.78" width="2.50" shape="-53.93,78.51 -53.21,78.79 -52.52,79.04 -51.85,79.25 -51.22,79.42 -50.61,79.56 -50.04,79.67 -49.49,79.74 -48.96,79.77 -48.47,79.77 -48.00,79.73 -47.57,79.65 -47.16,79.54 -46.77,79.40 -46.42,79.22 -46.10,79.00 -45.80,78.75 -45.53,78.46 -45.29,78.14 -45.07,77.78"/>
    </edge>
    <edge id=":24_1" function="internal">
        <lane id=":24_1_0" index="0" disallow="bus truck rail_fast" speed="36.11" length="8.36" width="2.50" shape="-53.93,78.51 -46.23,81.77"/>
    </edge>
    <edge id=":25_0" function="internal">
        <lane id=":25_0_0" index="0" disallow="bus truck rail_fast" speed="36.11" length="8.65" width="2.50" shape="81.05,-102.31 89.12,-99.21"/>
    </edge>
    <edge id=":25_1" function="internal">
        <lane id=":25_1_0" index="0" disallow="bus truck rail_fast" speed="10.04" length="9.42" width="2.50" shape="79.96,-99.40 80.37,-99.58 80.78,-99.74 81.21,-99.88 81.64,-99.99 82.08,-100.09 82.53,-100.16 82.99,-100.21 83.45,-100.24 83.92,-100.25 84.41,-100.24 84.90,-100.21 85.40,-100.16 85.90,-100.09 86.42,-99.99 86.94,-99.88 87.47,-99.74 88.01,-99.58 88.56,-99.41 89.12,-99.21"/>
    </edge>
    <edge id=":28_0" function="internal">
        <lane id=":28_0_0" index="0" disallow="bus truck rail_fast" speed="6.44" length="7.70" width="2.50" shape="88.27,-96.86 87.62,-97.10 87.00,-97.31 86.40,-97.51 85.84,-97.68 85.30,-97.83 84.80,-97.96 84.33,-98.07 83.88,-98.16 83.47,-98.22 83.08,-98.26 82.73,-98.29 82.40,-98.29 82.11,-98.26 81.84,-98.22 81.61,-98.15 81.40,-98.07 81.23,-97.96 81.08,-97.83 80.97,-97.67"/>
    </edge>
    <edge id=":28_1" function="internal">
        <lane id=":28_1_0" index="0" disallow="bus truck rail_fast" speed="36.11" length="8.65" width="2.50" shape="88.27,-96.86 80.20,-99.95"/>
    </edge>
    <edge id=":29_0" function="internal">
        <lane id=":29_0_0" index="0" disallow="bus truck rail_fast" speed="6.76" length="8.93" width="2.49" shape="-24.27,-29.99 -23.81,-29.97 -23.36,-29.98 -22.93,-30.02 -22.52,-30.10 -22.12,-30.22 -21.75,-30.37 -21.39,-30.56 -21.04,-30.78 -20.71,-31.03 -20.40,-31.32 -20.11,-31.64 -19.84,-32.00 -19.58,-32.40 -19.34,-32.83 -19.11,-33.29 -18.90,-33.79 -18.71,-34.32 -18.54,-34.89 -18.38,-35.49"/>
    </edge>
    <edge id=":29_1" function="internal">
        <lane id=":29_1_0" index="0" disallow="bus truck rail_fast" speed="36.11" length="7.79" width="2.49" shape="-20.13,-27.90 -18.38,-35.49"/>
    </edge>
    <edge id=":30_0" function="internal">
        <lane id=":30_0_0" index="0" disallow="bus truck rail_fast" speed="6.16" length="6.83" width="2.49" shape="8.22,-120.96 8.45,-121.55 8.67,-122.10 8.86,-122.63 9.03,-123.13 9.19,-123.61 9.32,-124.06 9.44,-124.48 9.53,-124.87 9.61,-125.24 9.67,-125.58 9.71,-125.90 9.73,-126.18 9.73,-126.44 9.71,-126.68 9.68,-126.88 9.62,-127.06 9.54,-127.22 9.45,-127.34 9.33,-127.44"/>
    </edge>
    <edge id=":30_1" function="internal">
        <lane id=":30_1_0" index="0" disallow="bus truck rail_fast" speed="36.11" length="8.29" width="2.49" shape="8.22,-120.96 11.35,-128.64"/>
    </edge>
    <edge id=":30_2" function="internal">
        <lane id=":30_2_0" index="0" disallow="bus truck rail_fast" speed="7.21" length="9.04" width="2.49" shape="8.22,-120.96 8.54,-121.73 8.85,-122.46 9.15,-123.14 9.44,-123.79 9.73,-124.39 10.01,-124.94 10.28,-125.46 10.55,-125.93 10.81,-126.36 11.06,-126.75 11.30,-127.09 11.54,-127.39 11.77,-127.65 11.99,-127.87 12.20,-128.04 12.41,-128.17 12.61,-128.26 12.81,-128.31 12.99,-128.31"/>
    </edge>
    <edge id=":31_0" function="internal">
        <lane id=":31_0_0" index="0" disallow="bus truck rail_fast" speed="36.11" length="2.75" width="2.50" shape="-25.59,-27.39 -28.28,-27.93"/>
    </edge>
    <edge id=":34_0" function="internal">
        <lane id=":34_0_0" index="0" disallow="bus truck rail_fast" speed="36.11" length="3.08" width="2.50" shape="-28.05,-30.43 -24.99,-30.05"/>
    </edge>
    <edge id=":36_0" function="internal">
        <lane id=":36_0_0" index="0" disallow="bus truck rail_fast" speed="36.11" length="2.92" width="2.50" shape="84.74,139.76 81.92,138.97"/>
    </edge>
    <edge id=":37_0" function="internal">
        <lane id=":37_0_0" index="0" disallow="bus truck rail_fast" speed="36.11" length="8.47" width="2.50" shape="77.32,134.95 77.92,135.17 78.45,135.37 78.94,135.54 79.38,135.69 79.79,135.83 80.16,135.95 80.51,136.06 80.85,136.16 81.17,136.26 81.49,136.35 81.82,136.44 82.16,136.53 82.51,136.62 82.90,136.71 83.31,136.82 83.77,136.93 84.27,137.06 84.82,137.20 85.43,137.36"/>
    </edge>
    <edge id=":37_1" function="internal">
        <lane id=":37_1_0" index="0" disallow="bus truck rail_fast" speed="8.18" length="7.38" width="2.50" shape="78.36,138.18 78.64,137.98 78.93,137.80 79.23,137.64 79.54,137.49 79.87,137.36 80.20,137.25 80.54,137.15 80.89,137.07 81.25,137.01 81.63,136.97 82.01,136.94 82.40,136.93 82.81,136.94 83.22,136.97 83.64,137.01 84.07,137.07 84.52,137.15 84.97,137.25 85.43,137.36"/>
    </edge>
    <edge id=":39_0" function="internal">
        <lane id=":39_0_0" index="0" disallow="bus truck rail_fast" speed="21.47" length="8.82" width="2.50" shape="-45.03,83.09 -45.07,82.44 -45.11,81.85 -45.13,81.31 -45.15,80.83 -45.16,80.38 -45.16,79.97 -45.14,79.59 -45.12,79.22 -45.08,78.87 -45.03,78.53 -44.97,78.18 -44.89,77.82 -44.80,77.44 -44.69,77.04 -44.57,76.62 -44.43,76.15 -44.27,75.63 -44.10,75.07 -43.90,74.44"/>
    </edge>
    <edge id=":39_1" function="internal">
        <lane id=":39_1_0" index="0" disallow="bus truck rail_fast" speed="36.11" length="2.34" width="2.50" shape="-44.59,76.68 -43.90,74.44"/>
    </edge>
    <edge id=":39_2" function="internal">
        <lane id=":39_2_0" index="0" disallow="bus truck rail_fast" speed="36.11" length="9.32" width="2.50" shape="-46.71,83.33 -43.90,74.44"/>
    </edge>
    <edge id=":4_0" function="internal">
        <lane id=":4_0_0" index="0" disallow="bus truck rail_fast" speed="36.11" length="2.97" width="2.50" shape="-59.45,148.93 -62.16,147.72"/>
    </edge>
    <edge id=":40_0" function="internal">
        <lane id=":40_0_0" index="0" disallow="bus truck rail_fast" speed="6.68" length="9.54" width="2.50" shape="-22.01,-19.38 -21.87,-20.08 -21.78,-20.75 -21.71,-21.39 -21.68,-21.99 -21.68,-22.57 -21.71,-23.11 -21.78,-23.62 -21.87,-24.10 -22.00,-24.54 -22.17,-24.96 -22.36,-25.34 -22.59,-25.70 -22.85,-26.02 -23.14,-26.30 -23.47,-26.56 -23.83,-26.79 -24.22,-26.98 -24.64,-27.14 -25.10,-27.27"/>
    </edge>
    <edge id=":40_1" function="internal">
        <lane id=":40_1_0" index="0" disallow="bus truck rail_fast" speed="36.11" length="8.52" width="2.50" shape="-22.01,-19.38 -20.18,-27.71"/>
    </edge>
    <edge id=":41_0" function="internal">
        <lane id=":41_0_0" index="0" disallow="bus truck rail_fast" speed="36.11" length="7.77" width="2.50" shape="12.52,-129.01 12.65,-129.58 12.77,-130.09 12.88,-130.55 12.98,-130.97 13.07,-131.35 13.15,-131.70 13.24,-132.03 13.32,-132.34 13.41,-132.64 13.50,-132.93 13.60,-133.23 13.71,-133.53 13.84,-133.84 13.98,-134.17 14.13,-134.53 14.31,-134.92 14.51,-135.35 14.74,-135.82 14.99,-136.34"/>
    </edge>
    <edge id=":41_1" function="internal">
        <lane id=":41_1_0" index="0" disallow="bus truck rail_fast" speed="36.11" length="5.82" width="2.50" shape="12.16,-131.26 14.99,-136.34"/>
    </edge>
    <edge id=":41_2" function="internal">
        <lane id=":41_2_0" index="0" disallow="bus truck rail_fast" speed="36.11" length="8.32" width="2.50" shape="11.43,-128.82 14.99,-136.34"/>
    </edge>
    <edge id=":43_0" function="internal">
        <lane id=":43_0_0" index="0" disallow="bus truck rail_fast" speed="32.32" length="6.96" width="2.50" shape="-132.96,48.44 -133.35,48.09 -133.70,47.78 -134.01,47.49 -134.30,47.23 -134.56,47.00 -134.81,46.79 -135.05,46.59 -135.27,46.41 -135.49,46.25 -135.72,46.09 -135.95,45.93 -136.20,45.78 -136.46,45.63 -136.74,45.47 -137.06,45.31 -137.40,45.14 -137.78,44.96 -138.20,44.76 -138.67,44.54"/>
    </edge>
    <edge id=":43_1" function="internal">
        <lane id=":43_1_0" index="0" disallow="rail_fast" speed="36.11" length="9.07" width="2.50" shape="-130.42,48.30 -138.67,44.54"/>
    </edge>
    <edge id=":46_0" function="internal">
        <lane id=":46_0_0" index="0" disallow="rail_fast" speed="36.11" length="9.07" width="2.50" shape="-137.63,42.27 -129.37,46.02"/>
    </edge>
    <edge id=":46_1" function="internal">
        <lane id=":46_1_0" index="0" disallow="bus truck rail_fast" speed="8.81" length="9.85" width="2.50" shape="-137.63,42.27 -136.98,42.58 -136.37,42.89 -135.78,43.20 -135.23,43.53 -134.71,43.85 -134.23,44.18 -133.77,44.51 -133.35,44.85 -132.96,45.19 -132.60,45.54 -132.27,45.89 -131.97,46.24 -131.71,46.60 -131.48,46.96 -131.28,47.33 -131.11,47.70 -130.97,48.07 -130.87,48.45 -130.80,48.83"/>
    </edge>
    <edge id=":47_0" function="internal">
        <lane id=":47_0_0" index="0" disallow="rail_fast" speed="36.11" length="8.70" width="2.50" shape="23.40,115.75 15.44,112.22"/>
    </edge>
    <edge id=":47_1" function="internal">
        <lane id=":47_1_0" index="0" disallow="bus truck rail_fast" speed="9.82" length="9.64" width="2.50" shape="24.75,113.33 24.38,113.48 23.99,113.61 23.59,113.71 23.18,113.79 22.76,113.84 22.32,113.87 21.87,113.88 21.40,113.87 20.93,113.84 20.44,113.78 19.93,113.70 19.42,113.59 18.89,113.46 18.35,113.31 17.79,113.14 17.22,112.94 16.64,112.72 16.05,112.48 15.44,112.22"/>
    </edge>
    <edge id=":48_0" function="internal">
        <lane id=":48_0_0" index="0" disallow="bus truck rail_fast" speed="36.11" length="7.95" width="2.50" shape="-39.45,87.46 -46.73,84.27"/>
    </edge>
    <edge id=":48_1" function="internal">
        <lane id=":48_1_0" index="0" disallow="bus truck rail_fast" speed="7.19" length="7.16" width="2.50" shape="-39.45,87.46 -40.01,87.20 -40.54,86.95 -41.04,86.70 -41.50,86.46 -41.95,86.22 -42.36,85.98 -42.74,85.75 -43.09,85.52 -43.41,85.30 -43.70,85.08 -43.97,84.87 -44.20,84.65 -44.40,84.45 -44.58,84.24 -44.73,84.05 -44.84,83.85 -44.93,83.66 -44.98,83.47 -45.01,83.29"/>
    </edge>
    <edge id=":49_0" function="internal">
        <lane id=":49_0_0" index="0" disallow="bus truck rail_fast" speed="36.11" length="8.62" width="2.50" shape="-46.04,81.85 -38.15,85.31"/>
    </edge>
    <edge id=":49_1" function="internal">
        <lane id=":49_1_0" index="0" disallow="bus truck rail_fast" speed="36.11" length="7.06" width="2.50" shape="-44.88,83.29 -44.36,83.39 -43.89,83.48 -43.47,83.56 -43.09,83.64 -42.74,83.70 -42.42,83.77 -42.11,83.84 -41.83,83.90 -41.56,83.97 -41.29,84.05 -41.02,84.13 -40.74,84.22 -40.45,84.33 -40.15,84.45 -39.82,84.58 -39.46,84.73 -39.06,84.90 -38.63,85.09 -38.15,85.31"/>
    </edge>
    <edge id=":5_0" function="internal">
        <lane id=":5_0_0" index="0" disallow="bus truck rail_fast" speed="36.11" length="0.10" width="2.49" shape="27.67,117.63 27.58,117.59"/>
    </edge>
    <edge id=":5_1" function="internal">
        <lane id=":5_1_0" index="0" disallow="bus truck rail_fast" speed="36.11" length="4.77" width="2.49" shape="31.99,119.42 27.58,117.59"/>
    </edge>
    <edge id=":50_0" function="internal">
        <lane id=":50_0_0" index="0" disallow="bus truck rail_fast" speed="6.18" length="8.06" width="2.50" shape="16.47,109.94 17.17,110.25 17.83,110.53 18.46,110.79 19.06,111.02 19.62,111.23 20.15,111.41 20.65,111.57 21.11,111.70 21.54,111.80 21.93,111.88 22.30,111.94 22.63,111.97 22.92,111.97 23.18,111.95 23.41,111.90 23.61,111.83 23.77,111.73 23.90,111.61 24.00,111.46"/>
    </edge>
    <edge id=":50_1" function="internal">
        <lane id=":50_1_0" index="0" disallow="rail_fast" speed="36.11" length="8.55" width="2.47" shape="16.47,109.94 24.28,113.41"/>
    </edge>
    <edge id=":51_0" function="internal">
        <lane id=":51_0_0" index="0" disallow="bus truck rail_fast" speed="36.11" length="6.38" width="2.50" shape="80.86,-97.50 80.61,-97.10 80.38,-96.73 80.18,-96.40 79.99,-96.10 79.82,-95.83 79.67,-95.57 79.52,-95.34 79.39,-95.11 79.27,-94.89 79.15,-94.66 79.03,-94.44 78.92,-94.20 78.80,-93.95 78.68,-93.68 78.55,-93.38 78.41,-93.06 78.27,-92.70 78.11,-92.30 77.93,-91.86"/>
    </edge>
    <edge id=":51_1" function="internal">
        <lane id=":51_1_0" index="0" disallow="bus truck rail_fast" speed="14.39" length="7.78" width="2.50" shape="79.46,-99.34 79.51,-98.77 79.55,-98.26 79.57,-97.79 79.58,-97.36 79.57,-96.98 79.55,-96.62 79.51,-96.28 79.46,-95.96 79.40,-95.66 79.32,-95.36 79.22,-95.05 79.11,-94.75 78.99,-94.42 78.85,-94.08 78.70,-93.71 78.53,-93.31 78.34,-92.87 78.15,-92.39 77.93,-91.86"/>
    </edge>
    <edge id=":52_0" function="internal">
        <lane id=":52_0_0" index="0" disallow="bus truck rail_fast" speed="6.33" length="7.88" width="2.50" shape="50.33,20.10 50.18,20.79 50.04,21.45 49.93,22.07 49.83,22.66 49.76,23.22 49.70,23.74 49.66,24.24 49.64,24.69 49.65,25.12 49.67,25.51 49.71,25.87 49.77,26.19 49.84,26.48 49.94,26.74 50.06,26.97 50.20,27.16 50.35,27.32 50.53,27.44 50.72,27.53"/>
    </edge>
    <edge id=":52_1" function="internal">
        <lane id=":52_1_0" index="0" disallow="bus truck rail_fast" speed="36.11" length="8.99" width="2.50" shape="50.33,20.10 48.34,28.87"/>
    </edge>
    <edge id=":53_0" function="internal">
        <lane id=":53_0_0" index="0" disallow="bus truck rail_fast" speed="9.75" length="9.52" width="2.50" shape="48.92,28.74 48.68,28.37 48.47,27.99 48.27,27.60 48.09,27.20 47.93,26.78 47.80,26.35 47.68,25.91 47.59,25.45 47.51,24.98 47.46,24.50 47.42,24.00 47.41,23.49 47.42,22.97 47.45,22.43 47.49,21.88 47.56,21.32 47.65,20.74 47.76,20.15 47.89,19.55"/>
    </edge>
    <edge id=":53_1" function="internal">
        <lane id=":53_1_0" index="0" disallow="bus truck rail_fast" speed="36.11" length="8.95" width="2.50" shape="45.91,28.28 47.89,19.55"/>
    </edge>
    <edge id=":54_0" function="internal">
        <lane id=":54_0_0" index="0" disallow="bus truck rail_fast" speed="6.56" length="6.58" width="2.50" shape="75.77,-93.19 75.84,-93.37 75.94,-93.60 76.05,-93.88 76.18,-94.20 76.32,-94.56 76.47,-94.94 76.63,-95.34 76.78,-95.76 76.93,-96.19 77.07,-96.62 77.21,-97.04 77.32,-97.46 77.42,-97.85 77.50,-98.22 77.55,-98.55 77.57,-98.85 77.56,-99.10 77.51,-99.30 77.42,-99.44"/>
    </edge>
    <edge id=":54_1" function="internal">
        <lane id=":54_1_0" index="0" disallow="bus truck rail_fast" speed="9.41" length="7.67" width="2.50" shape="75.77,-93.19 75.97,-93.71 76.14,-94.20 76.28,-94.65 76.41,-95.07 76.53,-95.47 76.64,-95.83 76.74,-96.18 76.85,-96.50 76.97,-96.81 77.10,-97.09 77.26,-97.37 77.43,-97.63 77.64,-97.88 77.88,-98.13 78.16,-98.37 78.48,-98.60 78.86,-98.84 79.29,-99.08 79.78,-99.32"/>
    </edge>
    <edge id=":56_0" function="internal">
        <lane id=":56_0_0" index="0" disallow="bus truck rail_fast" speed="6.37" length="6.79" width="2.50" shape="-134.69,54.96 -134.61,54.78 -134.50,54.55 -134.37,54.27 -134.23,53.94 -134.07,53.57 -133.91,53.18 -133.74,52.77 -133.56,52.33 -133.40,51.89 -133.24,51.45 -133.09,51.02 -132.95,50.59 -132.84,50.19 -132.75,49.81 -132.69,49.47 -132.66,49.17 -132.67,48.91 -132.72,48.71 -132.81,48.57"/>
    </edge>
    <edge id=":56_1" function="internal">
        <lane id=":56_1_0" index="0" disallow="bus truck rail_fast" speed="9.36" length="7.73" width="2.50" shape="-134.69,54.96 -134.46,54.44 -134.27,53.97 -134.10,53.52 -133.95,53.10 -133.82,52.71 -133.69,52.34 -133.57,51.99 -133.45,51.67 -133.31,51.37 -133.17,51.08 -133.01,50.81 -132.82,50.55 -132.60,50.31 -132.35,50.07 -132.06,49.85 -131.72,49.63 -131.33,49.41 -130.89,49.20 -130.38,48.99"/>
    </edge>
    <edge id=":57_0" function="internal">
        <lane id=":57_0_0" index="0" disallow="bus truck rail_fast" speed="36.11" length="5.55" width="2.50" shape="-129.54,51.10 -129.78,51.44 -129.99,51.75 -130.19,52.02 -130.36,52.28 -130.53,52.51 -130.67,52.72 -130.81,52.92 -130.93,53.11 -131.05,53.30 -131.17,53.49 -131.28,53.68 -131.39,53.88 -131.50,54.09 -131.62,54.32 -131.75,54.57 -131.88,54.85 -132.03,55.15 -132.18,55.49 -132.36,55.87"/>
    </edge>
    <edge id=":57_1" function="internal">
        <lane id=":57_1_0" index="0" disallow="bus truck rail_fast" speed="11.43" length="7.21" width="2.50" shape="-130.77,49.03 -130.70,49.55 -130.64,50.02 -130.61,50.45 -130.60,50.84 -130.60,51.20 -130.62,51.53 -130.66,51.84 -130.71,52.13 -130.78,52.42 -130.87,52.69 -130.97,52.97 -131.09,53.25 -131.23,53.55 -131.38,53.86 -131.55,54.19 -131.73,54.56 -131.92,54.95 -132.13,55.39 -132.36,55.87"/>
    </edge>
    <edge id=":59_0" function="internal">
        <lane id=":59_0_0" index="0" disallow="bus truck rail_fast" speed="14.20" length="7.06" width="2.50" shape="49.22,31.53 48.89,31.94 48.60,32.31 48.35,32.65 48.11,32.97 47.91,33.26 47.73,33.53 47.57,33.79 47.42,34.05 47.30,34.30 47.18,34.56 47.08,34.83 46.98,35.10 46.89,35.40 46.80,35.72 46.72,36.07 46.63,36.45 46.53,36.87 46.43,37.33 46.32,37.84"/>
    </edge>
    <edge id=":59_1" function="internal">
        <lane id=":59_1_0" index="0" disallow="bus truck rail_fast" speed="36.11" length="9.00" width="2.50" shape="48.29,29.06 46.32,37.84"/>
    </edge>
    <edge id=":6_0" function="internal">
        <lane id=":6_0_0" index="0" disallow="bus truck rail_fast" speed="36.11" length="4.17" width="2.50" shape="27.40,117.51 23.58,115.83"/>
    </edge>
    <edge id=":6_1" function="internal">
        <lane id=":6_1_0" index="0" disallow="bus truck rail_fast" speed="5.89" length="5.57" width="2.50" shape="27.40,117.51 27.11,117.37 26.84,117.22 26.59,117.07 26.36,116.90 26.14,116.72 25.94,116.52 25.76,116.32 25.59,116.11 25.45,115.88 25.31,115.64 25.20,115.39 25.10,115.13 25.02,114.86 24.96,114.58 24.91,114.29 24.88,113.98 24.87,113.66 24.87,113.34 24.89,113.00"/>
    </edge>
    <edge id=":60_0" function="internal">
        <lane id=":60_0_0" index="0" disallow="bus truck rail_fast" speed="5.61" length="9.01" width="2.47" shape="28.71,106.51 28.51,107.24 28.32,107.94 28.16,108.61 28.01,109.25 27.89,109.86 27.79,110.44 27.71,110.99 27.66,111.51 27.62,112.00 27.60,112.45 27.61,112.88 27.64,113.28 27.69,113.64 27.75,113.98 27.85,114.28 27.96,114.56 28.09,114.81 28.25,115.02 28.42,115.21"/>
    </edge>
    <edge id=":60_1" function="internal">
        <lane id=":60_1_0" index="0" disallow="bus truck rail_fast" speed="8.60" length="7.91" width="2.50" shape="28.71,106.51 28.53,107.12 28.35,107.69 28.17,108.24 27.98,108.75 27.79,109.25 27.60,109.71 27.41,110.15 27.21,110.56 27.02,110.94 26.82,111.29 26.62,111.62 26.42,111.92 26.21,112.19 26.00,112.44 25.79,112.66 25.58,112.85 25.37,113.01 25.15,113.15 24.94,113.25"/>
    </edge>
    <edge id=":61_0" function="internal">
        <lane id=":61_0_0" index="0" disallow="bus truck rail_fast" speed="36.11" length="7.60" width="2.50" shape="24.91,112.80 24.96,112.23 25.01,111.72 25.06,111.26 25.11,110.84 25.15,110.46 25.20,110.11 25.25,109.79 25.31,109.48 25.37,109.18 25.44,108.89 25.51,108.59 25.59,108.29 25.68,107.97 25.78,107.63 25.88,107.26 26.00,106.85 26.14,106.41 26.28,105.92 26.44,105.37"/>
    </edge>
    <edge id=":61_1" function="internal">
        <lane id=":61_1_0" index="0" disallow="bus truck rail_fast" speed="36.11" length="6.38" width="2.50" shape="24.09,111.28 24.30,110.86 24.49,110.47 24.66,110.12 24.81,109.81 24.95,109.52 25.08,109.25 25.20,109.00 25.31,108.75 25.41,108.52 25.50,108.29 25.60,108.05 25.69,107.80 25.78,107.54 25.87,107.26 25.97,106.95 26.07,106.62 26.19,106.24 26.31,105.83 26.44,105.37"/>
    </edge>
    <edge id=":62_0" function="internal">
        <lane id=":62_0_0" index="0" disallow="bus truck rail_fast" speed="36.11" length="9.00" width="2.50" shape="43.89,37.26 45.86,28.48"/>
    </edge>
    <edge id=":62_1" function="internal">
        <lane id=":62_1_0" index="0" disallow="bus truck rail_fast" speed="8.36" length="10.01" width="2.50" shape="43.89,37.26 44.06,36.52 44.24,35.82 44.43,35.15 44.63,34.51 44.84,33.91 45.07,33.35 45.30,32.82 45.54,32.32 45.80,31.86 46.07,31.43 46.34,31.04 46.63,30.68 46.93,30.35 47.23,30.06 47.55,29.81 47.88,29.59 48.22,29.40 48.57,29.25 48.94,29.13"/>
    </edge>
    <edge id=":63_0" function="internal">
        <lane id=":63_0_0" index="0" disallow="bus truck rail_fast" speed="7.99" length="10.33" width="2.49" shape="-63.18,146.98 -63.52,146.69 -63.84,146.37 -64.12,146.03 -64.37,145.66 -64.59,145.27 -64.79,144.86 -64.95,144.43 -65.07,143.97 -65.17,143.49 -65.24,142.98 -65.28,142.45 -65.28,141.90 -65.26,141.32 -65.21,140.72 -65.12,140.10 -65.00,139.45 -64.86,138.78 -64.68,138.09 -64.47,137.37"/>
    </edge>
    <edge id=":63_1" function="internal">
        <lane id=":63_1_0" index="0" disallow="bus truck rail_fast" speed="36.11" length="7.83" width="2.49" shape="-66.78,144.85 -64.47,137.37"/>
    </edge>
    <edge id=":64_0" function="internal">
        <lane id=":64_0_0" index="0" disallow="bus truck rail_fast" speed="6.62" length="7.13" width="2.49" shape="-49.30,91.34 -49.10,90.74 -48.93,90.18 -48.77,89.63 -48.63,89.12 -48.51,88.63 -48.41,88.17 -48.32,87.73 -48.26,87.32 -48.21,86.93 -48.18,86.57 -48.17,86.24 -48.18,85.93 -48.20,85.65 -48.25,85.39 -48.31,85.16 -48.39,84.96 -48.49,84.78 -48.61,84.63 -48.75,84.50"/>
    </edge>
    <edge id=":64_1" function="internal">
        <lane id=":64_1_0" index="0" disallow="bus truck rail_fast" speed="36.11" length="8.21" width="2.49" shape="-49.30,91.34 -46.77,83.52"/>
    </edge>
    <edge id=":64_2" function="internal">