<routes>
	<vehicle depart="0.1" departLane="0" departPos="0" departSpeed="8.7292" id="30" type="passenger">
		<route edges="3561 3617 3556 3632 3574"/>
	</vehicle>
	<vehicle depart="0.1" departLane="0" departPos="124.80207220705148" departSpeed="7.8014" id="31" type="passenger">
		<route edges="3550 3619 3574 3615 3567 3627 3571"/>
	</vehicle>
	<vehicle depart="0.1" departLane="0" departPos="74.04805753061532" departSpeed="7.0397" id="32" type="passenger">
		<route edges="3571 3582 3545 3596 3546"/>
	</vehicle>
	<vehicle depart="0.1" departLane="0" departPos="117.32400017534107" departSpeed="9.0499" id="33" type="passenger">
		<route edges="3558 3588 3556 3632 3574"/>
	</vehicle>
	<vehicle depart="0.1" departLane="0" departPos="36.37791883013789" departSpeed="7.0561" id="34" type="passenger">
		<route edges="3571 3582 3545 3596 3546"/>
	</vehicle>
	<vehicle depart="0.1" departLane="0" departPos="49.04473195030974" departSpeed="8.6058" id="35" type="passenger">
		<route edges="3567 3627 3571 3582 3545 3596 3546"/>
	</vehicle>
	<vehicle depart="0.1" departLane="0" departPos="83.52176644309736" departSpeed="0.0" id="36" type="passenger">
		<route edges="3577 3605 3548 3591 3544 3598 3565 3586 3561"/>
	</vehicle>
	<vehicle depart="0.1" departLane="0" departPos="0" departSpeed="8.2201" id="37" type="passenger">
		<route edges="3575 3593 3551"/>
	</vehicle>
	<vehicle depart="0.1" departLane="0" departPos="109.3970473475247" departSpeed="7.7553" id="38" type="passenger">
		<route edges="3550 3619 3574 3615 3567 3627 3571"/>
	</vehicle>
	<vehicle depart="0.1" departLane="0" departPos="0" departSpeed="7.6299" id="39" type="passenger">
		<route edges="3573 3633 3561 3617 3556"/>
	</vehicle>
	<vehicle depart="0.1" departLane="0" departPos="0" departSpeed="7.1968" id="310" type="passenger">
		<route edges="3565 3602 3552 3595 3563"/>
	</vehicle>
	<vehicle depart="0.1" departLane="0" departPos="0" departSpeed="7.7491" id="311" type="passenger">
		<route edges="3572 3611 3568 3610 3575"/>
	</vehicle>
	<vehicle depart="0.1" departLane="0" departPos="0" departSpeed="7.7717" id="312" type="passenger">
		<route edges="3567 3627 3571 3582 3545 3596 3546"/>
	</vehicle>
	<vehicle depart="0.1" departLane="0" departPos="33.01326934105986" departSpeed="0.0" id="313" type="passenger">
		<route edges="3548 3591 3544 3598 3565 3586 3561"/>
	</vehicle>
	<vehicle depart="0.1" departLane="0" departPos="0" departSpeed="6.7314" id="314" type="passenger">
		<route edges="3550 3619 3574 3615 3567"/>
	</vehicle>
	<vehicle depart="0.1" departLane="0" departPos="9.008067273205514" departSpeed="7.7026" id="315" type="passenger">
		<route edges="3583 3553 3624 3566 3601 3545 3596 3546"/>
	</vehicle>
	<vehicle depart="0.1" departLane="0" departPos="36.24344879720148" departSpeed="2.6332" id="316" type="passenger">
		<route edges="3569 3620 3553 3624 3566"/>
	</vehicle>
	<vehicle depart="0.1" departLane="0" departPos="94.03905644532838" departSpeed="7.7843" id="317" type="passenger">
		<route edges="3550 3619 3574 3615 3567"/>
	</vehicle>
	<vehicle depart="0.1" departLane="0" departPos="0" departSpeed="2.4477" id="318" type="passenger">
		<route edges="3569 3620 3553 3624 3566"/>
	</vehicle>
	<vehicle depart="0.1" departLane="0" departPos="65.29914811454282" departSpeed="6.8426" id="319" type="passenger">
		<route edges="3564 3583 3553 3624 3566 3601 3545 3596 3546"/>
	</vehicle>
	<vehicle depart="0.1" departLane="0" departPos="0" departSpeed="6.7426" id="320" type="passenger">
		<route edges="3564 3583 3553 3624 3566 3601 3545 3596 3546"/>
	</vehicle>
	<vehicle depart="0.1" departLane="0" departPos="0" departSpeed="7.5298" id="321" type="passenger">
		<route edges="3594 3601 3622 3594 3572 3611 3568 3610 3575"/>
	</vehicle>
	<vehicle depart="0.1" departLane="0" departPos="5.332958964920727" departSpeed="7.0945" id="322" type="passenger">
		<route edges="3599 3573 3633 3561 3617 3556"/>
	</vehicle>
	<vehicle depart="0.1" departLane="0" departPos="0" departSpeed="7.0074" id="323" type="passenger">
		<route edges="3571 3582 3545 3596 3546"/>
	</vehicle>
	<vehicle depart="0.1" departLane="0" departPos="47.08816946564839" departSpeed="7.2156" id="324" type="passenger">
		<route edges="3573 3581 3566 3601 3545 3596 3546"/>
	</vehicle>
	<vehicle depart="0.1" departLane="0" departPos="0" departSpeed="8.3231" id="325" type="passenger">
		<route edges="3568 3610 3575 3593 3551"/>
	</vehicle>
	<vehicle depart="0.1" departLane="0" departPos="7.3050147965334755" departSpeed="7.5537" id="326" type="passenger">
		<route edges="3585 3567 3627 3571 3582 3545 3596 3546"/>
	</vehicle>
	<vehicle depart="0.1" departLane="0" departPos="86.28833521754085" departSpeed="0.6568" id="327" type="passenger">
		<route edges="3577 3605 3548 3591 3544 3598 3565 3586 3561"/>
	</vehicle>
	<vehicle depart="0.1" departLane="0" departPos="0" departSpeed="6.9216" id="328" type="passenger">
		<route edges="3550 3619 3574 3615 3567"/>
	</vehicle>
	<vehicle depart="0.1" departLane="0" departPos="0" departSpeed="8.5263" id="330" type="passenger">
		<route edges="3558 3588 3556 3632 3574"/>
	</vehicle>
	<vehicle depart="0.1" departLane="0" departPos="0" departSpeed="8.5994" id="331" type="passenger">
		<route edges="3548 3591 3544 3598 3565 3586 3561"/>
	</vehicle>
	<vehicle depart="0.1" departLane="0" departPos="31.23194222129417" departSpeed="7.4948" id="332" type="passenger">
		<route edges="3573 3633 3561 3617 3556"/>
	</vehicle>
	<vehicle depart="0.1" departLane="0" departPos="74.04805753061532" departSpeed="7.0092" id="333" type="passenger">
		<route edges="3571 3582 3545 3596 3546"/>
	</vehicle>
	<vehicle depart="0.1" departLane="0" departPos="0" departSpeed="7.7284" id="334" type="passenger">
		<route edges="3553 3624 3566 3601 3545 3596 3546"/>
	</vehicle>
	<vehicle depart="0.1" departLane="0" departPos="0" departSpeed="8.2343" id="335" type="passenger">
		<route edges="3558 3588 3556 3632 3574"/>
	</vehicle>
	<vehicle depart="0.1" departLane="0" departPos="54.220075388927086" departSpeed="8.223" id="336" type="passenger">
		<route edges="3559 3609 3548 3591 3544 3598 3565 3586 3561"/>
	</vehicle>
	<vehicle depart="0.1" departLane="0" departPos="46.85581991614583" departSpeed="7.42" id="337" type="passenger">
		<route edges="3547 3625 3544 3594 3601 3622 3594 3572 3611 3568 3610 3575"/>
	</vehicle>
	<vehicle depart="0.1" departLane="0" departPos="50.90638349617728" departSpeed="7.0697" id="338" type="passenger">
		<route edges="3543 3599 3573 3633 3561 3617 3556"/>
	</vehicle>
	<vehicle depart="0.1" departLane="0" departPos="0" departSpeed="6.7568" id="339" type="passenger">
		<route edges="3550 3619 3574 3615 3567"/>
	</vehicle>
	<vehicle depart="0.1" departLane="0" departPos="0" departSpeed="7.2235" id="340" type="passenger">
		<route edges="3577 3605 3548 3591 3544 3598 3565 3586 3561"/>
	</vehicle>
	<vehicle depart="0.1" departLane="0" departPos="47.21629894108722" departSpeed="7.1336" id="341" type="passenger">
		<route edges="3555 3585 3567 3627 3571 3582 3545 3596 3546"/>
	</vehicle>
	<vehicle depart="0.1" departLane="0" departPos="0" departSpeed="6.5778" id="342" type="passenger">
		<route edges="3564 3583 3553 3624 3566"/>
	</vehicle>
	<vehicle depart="0.1" departLane="0" departPos="7.314936181129171" departSpeed="7.4817" id="343" type="passenger">
		<route edges="3629 3571 3582 3545 3596 3546"/>
	</vehicle>
	<vehicle depart="0.1" departLane="0" departPos="0" departSpeed="2.4203" id="344" type="passenger">
		<route edges="3569 3620 3553 3624 3566"/>
	</vehicle>
	<vehicle depart="0.1" departLane="0" departPos="0" departSpeed="8.0468" id="345" type="passenger">
		<route edges="3558 3588 3556 3632 3574"/>
	</vehicle>
	<vehicle depart="0.1" departLane="0" departPos="32.76685631504415" departSpeed="6.9504" id="346" type="passenger">
		<route edges="3547 3625 3594 3598 3565 3586 3561 3617 3556"/>
	</vehicle>
	<vehicle depart="0.1" departLane="0" departPos="0" departSpeed="6.5261" id="348" type="passenger">
		<route edges="3550 3619 3574 3615 3567"/>
	</vehicle>
	<vehicle depart="0.1" departLane="0" departPos="35.12775769814208" departSpeed="8.0082" id="349" type="passenger">
		<route edges="3559 3609 3548 3591 3544 3598 3565 3586 3561"/>
	</vehicle>
	<vehicle depart="0.1" departLane="0" departPos="47.21629894108722" departSpeed="6.5346" id="350" type="passenger">
		<route edges="3555 3623 3575 3593 3551"/>
	</vehicle>
	<vehicle depart="0.1" departLane="0" departPos="0" departSpeed="6.855" id="351" type="passenger">
		<route edges="3577 3605 3548 3591 3544 3598 3565 3586 3561"/>
	</vehicle>
	<vehicle depart="0.1" departLane="0" departPos="0" departSpeed="7.4216" id="352" type="passenger">
		<route edges="3558 3588 3556 3632 3574"/>
	</vehicle>
	<vehicle depart="0.1" departLane="0" departPos="0" departSpeed="6.0375" id="353" type="passenger">
		<route edges="3564 3583 3553 3624 3566"/>
	</vehicle>
	<vehicle depart="0.1" departLane="0" departPos="24.427467278725004" departSpeed="6.2044" id="354" type="passenger">
		<route edges="3579 3629 3571 3582 3545 3596 3546"/>
	</vehicle>
	<vehicle depart="0.1" departLane="0" departPos="0" departSpeed="7.0659" id="355" type="passenger">
		<route edges="3543 3599 3573 3633 3561 3617 3556"/>
	</vehicle>
	<vehicle depart="0.1" departLane="0" departPos="0" departSpeed="6.3237" id="356" type="passenger">
		<route edges="3547 3625 3594 3601 3622 3594 3572 3611 3568 3610 3575"/>
	</vehicle>
	<vehicle depart="0.1" departLane="0" departPos="0" departSpeed="5.9051" id="357" type="passenger">
		<route edges="3550 3619 3574 3615 3567"/>
	</vehicle>
	<vehicle depart="0.1" departLane="0" departPos="17.63402029417847" departSpeed="7.583" id="358" type="passenger">
		<route edges="3559 3609 3548 3591 3544 3598 3565 3586 3561"/>
	</vehicle>
	<vehicle depart="0.1" departLane="0" departPos="0" departSpeed="6.5606" id="359" type="passenger">
		<route edges="3558 3588 3556 3632 3574"/>
	</vehicle>
	<vehicle depart="0.1" departLane="0" departPos="47.21629894108722" departSpeed="5.6699" id="360" type="passenger">
		<route edges="3555 3585 3567 3627 3571 3582 3545 3596 3546"/>
	</vehicle>
	<vehicle depart="0.1" departLane="0" departPos="0" departSpeed="6.1153" id="361" type="passenger">
		<route edges="3577 3605 3548 3591 3544 3598 3565 3586 3561"/>
	</vehicle>
	<vehicle depart="0.1" departLane="0" departPos="0" departSpeed="5.0792" id="362" type="passenger">
		<route edges="3564 3583 3553 3624 3566"/>
	</vehicle>
	<vehicle depart="0.1" departLane="0" departPos="0" departSpeed="5.0181" id="363" type="passenger">
		<route edges="3579 3629 3571 3582 3545 3596 3546"/>
	</vehicle>
	<vehicle depart="0.1" departLane="0" departPos="0" departSpeed="1.9658" id="364" type="passenger">
		<route edges="3569 3620 3553 3624 3566"/>
	</vehicle>
	<vehicle depart="0.1" departLane="0" departPos="0" departSpeed="4.898" id="365" type="passenger">
		<route edges="3543 3599 3573 3633 3561"/>
	</vehicle>
	<vehicle depart="0.1" departLane="0" departPos="0" departSpeed="4.7103" id="366" type="passenger">
		<route edges="3550 3619 3574 3615 3567"/>
	</vehicle>
	<vehicle depart="0.1" departLane="0" departPos="0" departSpeed="4.7912" id="367" type="passenger">
		<route edges="3547 3625 3594 3601 3545 3596 3546"/>
	</vehicle>
	<vehicle depart="0.1" departLane="0" departPos="0" departSpeed="4.5672" id="368" type="passenger">
		<route edges="3559 3609 3548 3591 3544 3598 3565 3586 3561"/>
	</vehicle>
	<vehicle depart="0.1" departLane="0" departPos="0" departSpeed="4.3651" id="369" type="passenger">
		<route edges="3577 3605 3548 3591 3544 3598 3565 3586 3561"/>
	</vehicle>
	<vehicle depart="0.1" departLane="0" departPos="0" departSpeed="4.645" id="370" type="passenger">
		<route edges="3558 3588 3556 3632 3574"/>
	</vehicle>
	<vehicle depart="0.1" departLane="0" departPos="0" departSpeed="3.3582" id="371" type="passenger">
		<route edges="3555 3585 3567 3627 3571"/>
	</vehicle>
	<vehicle depart="0.1" departLane="0" departPos="0" departSpeed="2.7202" id="372" type="passenger">
		<route edges="3564 3583 3553 3624 3566"/>
	</vehicle>
</routes>
