<!-- generated on 2020-12-18 16:20:51.937452 by ipykernel_launcher.py v1_2_0+5214-53edc58fcd
-->
<edges>
	<edge from="1" function="normal" id="3542" length="60.38330196468137" numLanes="1" priority="1" speed="36.11111111111111" spreadType="center" to="2">
		<lane allow="moped bicycle pedestrian custom1 trailer evehicle rail_urban ship private truck vip custom2 authority delivery rail_electric taxi tram army hov coach motorcycle passenger bus rail emergency" index="0" length="60.38330196468137" shape="-59.90825,146.0559 -31.8474,157.19965000000002 -3.7888,168.3438" speed="36.11111111111111" width="2.4995009681934515"/>
	</edge>
	<edge from="3" function="normal" id="3543" length="60.379229183455266" numLanes="1" priority="1" speed="36.11111111111111" spreadType="center" to="4">
		<lane allow="moped bicycle pedestrian custom1 trailer evehicle rail_urban ship private truck vip custom2 authority delivery rail_electric taxi tram army hov coach motorcycle passenger bus rail emergency" index="0" length="60.379229183455266" shape="-4.711650000000001,170.66725000000002 -32.7702,159.5231 -60.82640000000001,148.37855000000002" speed="36.11111111111111" width="2.4999494794895294"/>
	</edge>
	<edge from="5" function="normal" id="3544" length="0.27434515008606214" numLanes="1" priority="1" speed="36.11111111111111" spreadType="center" to="6">
		<lane allow="moped bicycle pedestrian custom1 trailer evehicle rail_urban ship private vip custom2 authority delivery rail_electric taxi tram army hov coach motorcycle passenger rail emergency" index="0" length="0.27434515008606214" shape="27.6705,117.6267 27.640349999999998,117.6276 27.4225,117.5173" speed="36.11111111111111" width="2.488617752890156"/>
	</edge>
	<edge from="7" function="normal" id="3545" length="0.25016373240226564" numLanes="1" priority="1" speed="36.11111111111111" spreadType="center" to="8">
		<lane allow="moped bicycle pedestrian custom1 trailer evehicle rail_urban ship private vip custom2 authority delivery rail_electric taxi tram army hov coach motorcycle passenger rail emergency" index="0" length="0.25016373240226564" shape="28.4954,115.2733 28.61485,115.32535 28.72535,115.37180000000001" speed="36.11111111111111" width="2.467125655494661"/>
	</edge>
	<edge from="9" function="normal" id="3546" length="52.017964844176674" numLanes="1" priority="1" speed="36.11111111111111" spreadType="center" to="10">
		<lane allow="moped bicycle pedestrian custom1 trailer evehicle rail_urban ship private truck vip custom2 authority delivery rail_electric taxi tram army hov coach motorcycle passenger bus rail emergency" index="0" length="52.017964844176674" shape="30.72945,125.98949999999999 24.07255,151.13215 17.41565,176.2748" speed="36.11111111111111" width="2.497858396707071"/>
	</edge>
	<edge from="11" function="normal" id="3547" length="52.0211422396618" numLanes="1" priority="1" speed="36.11111111111111" spreadType="center" to="12">
		<lane allow="moped bicycle pedestrian custom1 trailer evehicle rail_urban ship private truck vip custom2 authority delivery rail_electric taxi tram army hov coach motorcycle passenger bus rail emergency" index="0" length="52.0211422396618" shape="14.99895,175.63495 21.65585,150.49225 28.3144,125.3468" speed="36.11111111111111" width="2.4999821799364836"/>
	</edge>
	<edge from="13" function="normal" id="3548" length="35.594115521946705" numLanes="1" priority="1" speed="36.11111111111111" spreadType="center" to="14">
		<lane allow="moped bicycle pedestrian custom1 trailer evehicle rail_urban ship private truck vip custom2 authority delivery rail_electric taxi tram army hov coach motorcycle passenger bus rail emergency" index="0" length="35.594115521946705" shape="71.28315,135.3954 54.79705,128.7066 38.300399999999996,122.01335" speed="36.11111111111111" width="2.4981146590979386"/>
	</edge>
	<edge from="15" function="normal" id="3549" length="35.61079187821147" numLanes="1" priority="1" speed="36.11111111111111" spreadType="center" to="16">
		<lane allow="moped bicycle pedestrian custom1 trailer evehicle rail_urban ship private truck vip custom2 authority delivery rail_electric taxi tram army hov coach motorcycle passenger bus rail emergency" index="0" length="35.61079187821147" shape="39.2211,119.6896 55.73695,126.39 72.21925,133.07805000000002" speed="36.11111111111111" width="2.500009513981889"/>
	</edge>
	<edge from="17" function="normal" id="3550" length="154.67736023736336" numLanes="1" priority="1" speed="36.11111111111111" spreadType="center" to="18">
		<lane allow="moped bicycle pedestrian custom1 trailer evehicle rail_urban ship private truck vip custom2 authority delivery rail_electric taxi tram army hov coach motorcycle passenger bus rail emergency" index="0" length="154.67736023736336" shape="-135.9063,-193.8821 -64.9204,-163.1722 6.05555,-132.46615" speed="36.11111111111111" width="2.499200708226526"/>
	</edge>
	<edge from="19" function="normal" id="3551" length="154.68767857533837" numLanes="1" priority="1" speed="36.11111111111111" spreadType="center" to="20">
		<lane allow="moped bicycle pedestrian custom1 trailer evehicle rail_urban ship private truck vip custom2 authority delivery rail_electric taxi tram army hov coach motorcycle passenger bus rail emergency" index="0" length="154.68767857533837" shape="5.0727,-130.16825 -65.91305,-160.87775 -136.8989,-191.58765" speed="36.11111111111111" width="2.4998949997949946"/>
	</edge>
	<edge from="21" function="normal" id="3552" length="76.45516546245712" numLanes="1" priority="1" speed="36.11111111111111" spreadType="center" to="22">
		<lane allow="moped bicycle pedestrian custom1 trailer evehicle rail_urban ship private truck vip custom2 authority delivery rail_electric taxi tram army hov coach motorcycle passenger bus rail emergency" index="0" length="76.45516546245712" shape="-53.447649999999996,81.4077 -74.40145,72.84469999999999 -93.39375,64.8132 -123.7301,51.328100000000006" speed="36.11111111111111" width="2.499088033663474"/>
	</edge>
	<edge from="23" function="normal" id="3553" length="76.38972645984987" numLanes="1" priority="1" speed="36.11111111111111" spreadType="center" to="24">
		<lane allow="moped bicycle pedestrian custom1 trailer evehicle rail_urban ship private truck vip custom2 authority delivery rail_electric taxi tram army hov coach motorcycle passenger bus rail emergency" index="0" length="76.38972645984987" shape="-122.73045,49.03725 -92.4026,62.51815 -73.4376,70.53795 -52.508250000000004,79.09135" speed="36.11111111111111" width="2.499261622959869"/>
	</edge>
	<edge from="25" function="normal" id="3554" length="46.561808924328666" numLanes="1" priority="1" speed="36.11111111111111" spreadType="center" to="26">
		<lane allow="moped bicycle pedestrian custom1 trailer evehicle rail_urban ship private vip custom2 authority delivery rail_electric taxi tram army hov coach motorcycle passenger rail emergency" index="0" length="46.561808924328666" shape="87.65125,-99.75605 118.3466,-88.3091 120.6656,-87.23485 122.1115,-86.73445 124.63055,-86.30160000000001 131.77245,-85.7961" speed="36.11111111111111" width="2.499963839738485"/>
	</edge>
	<edge from="27" function="normal" id="3555" length="47.21629894108722" numLanes="1" priority="1" speed="36.11111111111111" spreadType="center" to="28">
		<lane allow="moped bicycle pedestrian custom1 trailer evehicle rail_urban ship private vip custom2 authority delivery rail_electric taxi tram army hov coach motorcycle passenger rail emergency" index="0" length="47.21629894108722" shape="131.55635,-83.30574999999999 124.3064,-83.824 121.63705,-84.28014999999999 119.97835,-84.8079 117.63665,-85.90074999999999 86.79820000000001,-97.40675" speed="36.11111111111111" width="2.4990769355904114"/>
	</edge>
	<edge from="29" function="normal" id="3556" length="93.22775527189113" numLanes="1" priority="1" speed="36.11111111111111" spreadType="center" to="30">
		<lane allow="moped bicycle pedestrian custom1 trailer evehicle rail_urban ship private vip custom2 authority delivery rail_electric taxi tram army hov coach motorcycle passenger rail emergency" index="0" length="93.22775527189113" shape="-18.81945,-33.6653 -11.8144,-63.0792 -8.6903,-74.76294999999999 -5.60135,-84.8844 -2.28925,-94.40295 2.4375,-106.62280000000001 8.84825,-122.5125" speed="36.11111111111111" width="2.494168472657769"/>
	</edge>
	<edge from="31" function="normal" id="3557" length="190.26784431561785" numLanes="1" priority="1" speed="36.11111111111111" spreadType="center" to="32">
		<lane allow="moped bicycle pedestrian custom1 trailer evehicle rail_urban ship private vip custom2 authority delivery rail_electric taxi tram army hov coach motorcycle passenger rail emergency" index="0" length="190.26784431561785" shape="-26.926499999999997,-27.71615 -38.8578,-29.6182 -47.7656,-31.27145 -54.62445,-32.886 -63.8189,-35.5161 -73.38365,-38.6553 -84.2501,-42.6482 -102.01474999999999,-49.7388 -112.62774999999999,-54.3634 -138.58735000000001,-66.58189999999999 -203.79059999999998,-95.8656" speed="36.11111111111111" width="2.499942695343238"/>
	</edge>
	<edge from="33" function="normal" id="3558" length="189.61299649555178" numLanes="1" priority="1" speed="36.11111111111111" spreadType="center" to="34">
		<lane allow="moped bicycle pedestrian custom1 trailer evehicle rail_urban ship private vip custom2 authority delivery rail_electric taxi tram army hov coach motorcycle passenger rail emergency" index="0" length="189.61299649555178" shape="-202.76765,-98.14675 -137.66469999999998,-68.90979999999999 -111.756,-56.7132 -101.19800000000001,-52.10655 -83.49915,-45.03775 -72.68950000000001,-41.0607 -63.18625,-37.9369 -54.060249999999996,-35.32225 -47.27185,-33.7219 -38.42405,-32.08025 -26.5295,-30.18285" speed="36.11111111111111" width="2.499771599566648"/>
	</edge>
	<edge from="35" function="normal" id="3559" length="54.220075388927086" numLanes="1" priority="1" speed="36.11111111111111" spreadType="center" to="36">
		<lane allow="moped bicycle pedestrian custom1 trailer evehicle rail_urban ship private vip custom2 authority delivery rail_electric taxi tram army hov coach motorcycle passenger rail emergency" index="0" length="54.220075388927086" shape="137.13295,140.5657 134.57845,140.70375 122.3399,141.7033 112.1368,142.47745 105.4886,142.6611 99.35265000000001,142.47205 94.7698,142.03449999999998 90.24355,141.194 83.321,139.39215000000002" speed="36.11111111111111" width="2.4999696958163478"/>
	</edge>
	<edge from="37" function="normal" id="3560" length="53.43299006839127" numLanes="1" priority="1" speed="36.11111111111111" spreadType="center" to="38">
		<lane allow="moped bicycle pedestrian custom1 trailer evehicle rail_urban ship private vip custom2 authority delivery rail_electric taxi tram army hov coach motorcycle passenger rail emergency" index="0" length="53.43299006839127" shape="83.97399999999999,136.97975000000002 90.7947,138.75635 95.18915000000001,139.5701 99.64495,139.98605 105.66015,140.16145 112.1942,139.9712 122.2901,139.19774999999998 134.4533,138.20690000000002 137.00639999999999,138.06889999999999" speed="36.11111111111111" width="2.4989467001118753"/>
	</edge>
	<edge from="39" function="normal" id="3561" length="100.82358438810203" numLanes="1" priority="1" speed="36.11111111111111" spreadType="center" to="40">
		<lane allow="moped bicycle pedestrian custom1 trailer evehicle rail_urban ship private vip custom2 authority delivery rail_electric taxi tram army hov coach motorcycle passenger rail emergency" index="0" length="100.82358438810203" shape="-44.59015,76.67615 -38.37405,56.43615 -35.5833,46.22455 -32.80575,34.44905 -29.6611,19.1412 -24.8343,-5.5985499999999995 -21.59095,-21.401249999999997" speed="36.11111111111111" width="2.4978134317838863"/>
	</edge>
	<edge from="41" function="normal" id="3562" length="120.66216125401318" numLanes="1" priority="1" speed="36.11111111111111" spreadType="center" to="42">
		<lane allow="moped bicycle pedestrian custom1 trailer evehicle rail_urban ship private truck vip custom2 authority delivery rail_electric taxi tram army hov coach motorcycle passenger bus rail emergency" index="0" length="120.66216125401318" shape="14.17435,-134.6762 40.70275,-188.86185 67.2312,-243.04745000000003" speed="36.11111111111111" width="2.4969717919912533"/>
	</edge>
	<edge from="43" function="normal" id="3563" length="81.66854248770181" numLanes="1" priority="1" speed="36.11111111111111" spreadType="center" to="44">
		<lane allow="moped bicycle pedestrian custom1 trailer evehicle rail_urban ship private truck vip custom2 authority delivery rail_electric taxi tram army hov coach motorcycle passenger bus rail emergency" index="0" length="81.66854248770181" shape="-137.20704999999998,45.215599999999995 -174.28115000000003,28.09465 -211.3513,10.97555" speed="36.11111111111111" width="2.4993102988624605"/>
	</edge>
	<edge from="45" function="normal" id="3564" length="81.68586368042551" numLanes="1" priority="1" speed="36.11111111111111" spreadType="center" to="46">
		<lane allow="moped bicycle pedestrian custom1 trailer evehicle rail_urban ship private truck vip custom2 authority delivery rail_electric taxi tram army hov coach motorcycle passenger bus rail emergency" index="0" length="81.68586368042551" shape="-210.3031,8.7059 -173.23295000000002,25.825000000000003 -136.14335,42.9537" speed="36.11111111111111" width="2.4999614797032406"/>
	</edge>
	<edge from="47" function="normal" id="3565" length="63.81837999844329" numLanes="1" priority="1" speed="36.11111111111111" spreadType="center" to="48">
		<lane allow="moped bicycle pedestrian custom1 trailer evehicle rail_urban ship private truck vip custom2 authority delivery rail_electric taxi tram army hov coach motorcycle passenger bus rail emergency" index="0" length="63.81837999844329" shape="17.10805,112.9668 -11.9762,99.8499 -41.0673,86.72915" speed="36.11111111111111" width="2.498092282122507"/>
	</edge>
	<edge from="49" function="normal" id="3566" length="63.79514346683749" numLanes="1" priority="1" speed="36.11111111111111" spreadType="center" to="50">
		<lane allow="moped bicycle pedestrian custom1 trailer evehicle rail_urban ship private truck vip custom2 authority delivery rail_electric taxi tram army hov coach motorcycle passenger bus rail emergency" index="0" length="63.79514346683749" shape="-40.039950000000005,84.4516 -10.9484,97.57095000000001 18.1146,110.67885000000001" speed="36.11111111111111" width="2.4999516095316796"/>
	</edge>
	<edge from="51" function="normal" id="3567" length="119.26178119438418" numLanes="1" priority="1" speed="36.11111111111111" spreadType="center" to="52">
		<lane allow="moped bicycle pedestrian custom1 trailer evehicle rail_urban ship private vip custom2 authority delivery rail_electric taxi tram army hov coach motorcycle passenger rail emergency" index="0" length="119.26178119438418" shape="78.65395000000001,-93.68695 77.355,-90.38935000000001 73.06685,-78.56479999999999 70.14150000000001,-69.46424999999999 66.9881,-58.33045 64.09065,-46.6083 61.85980000000001,-36.28105 57.7543,-13.50385 55.3371,-1.6733 49.9237,21.8611" speed="36.11111111111111" width="2.4991040074394673"/>
	</edge>
	<edge from="53" function="normal" id="3568" length="119.67891387514237" numLanes="1" priority="1" speed="36.11111111111111" spreadType="center" to="54">
		<lane allow="moped bicycle pedestrian custom1 trailer evehicle rail_urban ship private vip custom2 authority delivery rail_electric taxi tram army hov coach motorcycle passenger rail emergency" index="0" length="119.67891387514237" shape="47.48355,21.31955 52.90665,-2.2611499999999998 55.3193,-14.08285 59.43475,-36.90445 61.68175,-47.28675 64.59685,-59.0657 67.7699,-70.25835000000001 70.71594999999999,-79.41575 75.0257,-91.29724999999999 76.33815000000001,-94.62610000000001" speed="36.11111111111111" width="2.4995089617762924"/>
	</edge>
	<edge from="55" function="normal" id="3569" length="114.17799196003146" numLanes="1" priority="1" speed="36.11111111111111" spreadType="center" to="56">
		<lane allow="moped bicycle pedestrian custom1 trailer evehicle rail_urban ship private vip custom2 authority delivery rail_electric taxi tram army hov coach motorcycle passenger rail emergency" index="0" length="114.17799196003146" shape="-182.51145,155.36355 -172.83890000000002,135.35014999999999 -169.97289999999998,130.0093 -165.801,123.0869 -158.5635,112.1265 -152.1721,102.42355 -148.2731,95.92665 -145.20915,90.11885000000001 -142.92335,85.05465000000001 -140.9754,79.85135 -139.8277,75.97865 -139.70265,73.96505 -139.8375,70.93715 -139.7323,68.9211 -139.4371,67.4353 -138.478,64.0326 -136.88375,59.7759 -133.93925000000002,53.320350000000005" speed="36.11111111111111" width="2.4992944164303865"/>
	</edge>
	<edge from="57" function="normal" id="3570" length="114.20347688799669" numLanes="1" priority="1" speed="36.11111111111111" spreadType="center" to="58">
		<lane allow="moped bicycle pedestrian custom1 trailer evehicle rail_urban ship private vip custom2 authority delivery rail_electric taxi tram army hov coach motorcycle passenger rail emergency" index="0" length="114.20347688799669" shape="-131.6766,54.38055 -134.59785,60.787549999999996 -136.1498,64.95410000000001 -137.0587,68.23259999999999 -137.2904,69.5846 -137.31605000000002,71.50765000000001 -137.21705,74.58065 -137.4459,76.7482 -138.6543,80.78955 -140.63845,86.06915000000001 -142.958,91.20495 -146.05325,97.0789 -149.97885000000002,103.6318 -156.38155,113.36205 -163.6105,124.3002 -167.7581,131.1714 -170.59935000000002,136.46015 -180.26080000000002,156.452" speed="36.11111111111111" width="2.4994413075725457"/>
	</edge>
	<edge from="59" function="normal" id="3571" length="74.04805753061532" numLanes="1" priority="1" speed="36.11111111111111" spreadType="center" to="60">
		<lane allow="moped bicycle pedestrian custom1 trailer evehicle rail_urban ship private vip custom2 authority delivery rail_electric taxi tram army hov coach motorcycle passenger rail emergency" index="0" length="74.04805753061532" shape="46.65905,36.2852 42.8082,53.987750000000005 39.356,68.70495 35.74275,82.34325000000001 28.2835,107.9864" speed="36.11111111111111" width="2.49845156847196"/>
	</edge>
	<edge from="61" function="normal" id="3572" length="73.89221803500948" numLanes="1" priority="1" speed="36.11111111111111" spreadType="center" to="62">
		<lane allow="moped bicycle pedestrian custom1 trailer evehicle rail_urban ship private vip custom2 authority delivery rail_electric taxi tram army hov coach motorcycle passenger rail emergency" index="0" length="73.89221803500948" shape="25.88615,107.28059999999999 33.33015,81.688 36.93105,68.09755 40.37235,53.4247 44.22185,35.730000000000004" speed="36.11111111111111" width="2.4994774913969517"/>
	</edge>
	<edge from="63" function="normal" id="3573" length="51.93825499327105" numLanes="1" priority="1" speed="36.11111111111111" spreadType="center" to="64">
		<lane allow="moped bicycle pedestrian custom1 trailer evehicle rail_urban ship private vip custom2 authority delivery rail_electric taxi tram army hov coach motorcycle passenger rail emergency" index="0" length="51.93825499327105" shape="-64.94005,138.89835 -61.68665,128.2929 -48.70235,89.56665000000001" speed="36.11111111111111" width="2.4947684501772938"/>
	</edge>
	<edge from="65" function="normal" id="3574" length="60.667068193881015" numLanes="1" priority="1" speed="36.11111111111111" spreadType="center" to="66">
		<lane allow="moped bicycle pedestrian custom1 trailer evehicle rail_urban ship private truck vip custom2 authority delivery rail_electric taxi tram army hov coach motorcycle passenger bus rail emergency" index="0" length="60.667068193881015" shape="18.059849999999997,-127.46950000000001 46.1991,-116.18235 74.36545000000001,-104.8825" speed="36.11111111111111" width="2.4992870523411312"/>
	</edge>
	<edge from="67" function="normal" id="3575" length="60.652557104819884" numLanes="1" priority="1" speed="36.11111111111111" spreadType="center" to="68">
		<lane allow="moped bicycle pedestrian custom1 trailer evehicle rail_urban ship private truck vip custom2 authority delivery rail_electric taxi tram army hov coach motorcycle passenger bus rail emergency" index="0" length="60.652557104819884" shape="73.41705,-102.5701 45.268299999999996,-113.86205 17.1253,-125.15265" speed="36.11111111111111" width="2.498934358881798"/>
	</edge>
	<edge from="69" function="normal" id="3576" length="7.8166411571006815" numLanes="1" priority="1" speed="36.11111111111111" spreadType="center" to="70">
		<lane allow="moped bicycle pedestrian custom1 trailer evehicle rail_urban ship private truck vip custom2 authority delivery rail_electric taxi tram army hov coach motorcycle passenger bus rail emergency" index="0" length="7.8166411571006815" shape="-71.1343,158.6418 -69.9371,154.9214 -68.7398,151.20094999999998" speed="36.11111111111111" width="2.4988286235754535"/>
	</edge>
	<edge from="71" function="normal" id="3577" length="86.28833521754086" numLanes="1" priority="1" speed="36.11111111111111" spreadType="center" to="72">
		<lane allow="moped bicycle pedestrian custom1 trailer evehicle rail_urban ship private truck vip custom2 authority delivery rail_electric taxi tram army hov coach motorcycle passenger bus rail emergency" index="0" length="86.28833521754086" shape="45.7732,223.7798 60.66575,183.28744999999998 75.55834999999999,142.7951" speed="36.11111111111111" width="2.4953326852345676"/>
	</edge>
	<edge from="73" function="normal" id="3578" length="31.005227255656585" numLanes="1" priority="1" speed="36.11111111111111" spreadType="center" to="74">
		<lane allow="moped bicycle pedestrian custom1 trailer evehicle rail_urban ship private truck vip custom2 authority delivery rail_electric taxi tram army hov coach motorcycle passenger bus rail emergency" index="0" length="31.005227255656585" shape="54.6748,28.85745 69.89325,31.8121 85.11170000000001,34.7667" speed="36.11111111111111" width="2.4979773517788373"/>
	</edge>
	<edge from="75" function="normal" id="3579" length="31.0061336353166" numLanes="1" priority="1" speed="36.11111111111111" spreadType="center" to="76">
		<lane allow="moped bicycle pedestrian custom1 trailer evehicle rail_urban ship private truck vip custom2 authority delivery rail_electric taxi tram army hov coach motorcycle passenger bus rail emergency" index="0" length="31.0061336353166" shape="84.63525000000001,37.2209 69.4168,34.2663 54.197649999999996,31.3105" speed="36.11111111111111" width="2.5000109199761504"/>
	</edge>
	<edge from="30" function="normal" id="3580" length="9.693729850981104" numLanes="1" priority="1" speed="36.11111111111111" spreadType="center" to="19">
		<lane allow="moped bicycle pedestrian custom1 trailer evehicle rail_urban ship private vip custom2 authority delivery rail_electric taxi tram army hov coach motorcycle passenger rail emergency" index="0" length="9.693729850981104" shape="8.84825,-122.5125 9.323699999999999,-124.26625 9.353449999999999,-125.4773 9.0733,-126.6549 8.4834,-127.7123 7.658049999999999,-128.59975 6.163,-129.63375000000002 5.0727,-130.16825" speed="36.11111111111111" width="2.494168472657769"/>
	</edge>
	<edge from="64" function="normal" id="3581" length="11.761349977648566" numLanes="1" priority="1" speed="36.11111111111111" spreadType="center" to="49">
		<lane allow="moped bicycle pedestrian custom1 trailer evehicle rail_urban ship private vip custom2 authority delivery rail_electric taxi tram army hov coach motorcycle passenger rail emergency" index="0" length="11.761349977648566" shape="-48.70235,89.56665000000001 -47.74805,87.2781 -46.74075,85.7164 -45.8759,84.8291 -44.831500000000005,84.16525 -43.64785,83.8078 -42.4107,83.77725000000001 -41.195449999999994,84.0191 -40.039950000000005,84.4516" speed="36.11111111111111" width="2.4947684501772938"/>
	</edge>
	<edge from="60" function="normal" id="3582" length="7.748297449085279" numLanes="1" priority="1" speed="36.11111111111111" spreadType="center" to="7">
		<lane allow="moped bicycle pedestrian custom1 trailer evehicle rail_urban ship private vip custom2 authority delivery rail_electric taxi tram army hov coach motorcycle passenger rail emergency" index="0" length="7.748297449085279" shape="28.2835,107.9864 27.7937,109.8672 27.601399999999998,110.8195 27.4623,111.7808 27.40325,112.75004999999999 27.4738,113.71745 27.7892,114.63045 28.4954,115.2733" speed="36.11111111111111" width="2.467125655494661"/>
	</edge>
	<edge from="46" function="normal" id="3583" length="14.72805042891106" numLanes="1" priority="1" speed="36.11111111111111" spreadType="center" to="23">
		<lane allow="moped bicycle pedestrian custom1 trailer evehicle rail_urban ship private truck vip custom2 authority delivery rail_electric taxi tram army hov coach motorcycle passenger bus rail emergency" index="0" length="14.72805042891106" shape="-136.14335,42.9537 -129.43484999999998,45.995549999999994 -122.73045,49.03725" speed="36.11111111111111" width="2.4999664357746894"/>
	</edge>
	<edge from="52" function="normal" id="3584" length="9.766494610101853" numLanes="1" priority="1" speed="36.11111111111111" spreadType="center" to="73">
		<lane allow="moped bicycle pedestrian custom1 trailer evehicle rail_urban ship private vip custom2 authority delivery rail_electric taxi tram army hov coach motorcycle passenger rail emergency" index="0" length="9.766494610101853" shape="49.9237,21.8611 49.736450000000005,22.93315 49.68555,24.0178 49.8271,25.0933 50.201800000000006,26.10955 50.82765,26.99305 51.65,27.6988 52.600049999999996,28.22335 53.619550000000004,28.598100000000002 54.6748,28.85745" speed="36.11111111111111" width="2.4979773517788373"/>
	</edge>
	<edge from="28" function="normal" id="3585" length="10.175220974367015" numLanes="1" priority="1" speed="36.11111111111111" spreadType="center" to="51">
		<lane allow="moped bicycle pedestrian custom1 trailer evehicle rail_urban ship private vip custom2 authority delivery rail_electric taxi tram army hov coach motorcycle passenger rail emergency" index="0" length="10.175220974367015" shape="86.79820000000001,-97.40675 85.7208,-97.73765 84.60375,-97.93525 83.4702,-97.94425 82.35945000000001,-97.7218 81.33585,-97.23679999999999 80.45165,-96.5282 79.72055,-95.66145 79.12700000000001,-94.69445 78.65395000000001,-93.68695" speed="36.11111111111111" width="2.4990769355904114"/>
	</edge>
	<edge from="48" function="normal" id="3586" length="11.860607695961008" numLanes="1" priority="1" speed="36.11111111111111" spreadType="center" to="39">
		<lane allow="moped bicycle pedestrian custom1 trailer evehicle rail_urban ship private vip custom2 authority delivery rail_electric taxi tram army hov coach motorcycle passenger rail emergency" index="0" length="11.860607695961008" shape="-41.0673,86.72915 -42.6062,85.8484 -43.5057,85.0744 -44.245400000000004,84.14689999999999 -44.78425,83.0901 -45.10535,81.9476 -45.22945,80.17305 -45.02525,78.40405 -44.59015,76.67615" speed="36.11111111111111" width="2.498092282122507"/>
	</edge>
	<edge from="14" function="normal" id="3587" length="10.107314900683292" numLanes="1" priority="1" speed="36.11111111111111" spreadType="center" to="9">
		<lane allow="moped bicycle pedestrian custom1 trailer evehicle rail_urban ship private vip custom2 authority delivery rail_electric taxi tram army hov coach motorcycle passenger rail emergency" index="0" length="10.107314900683292" shape="38.300399999999996,122.01335 37.23755,121.6489 36.13745,121.41839999999999 35.015100000000004,121.3853 33.918499999999995,121.61994999999999 32.93535,122.158 32.13745,122.94720000000001 31.527300000000004,123.89005 31.07025,124.91735 30.72945,125.98949999999999" speed="36.11111111111111" width="2.497858396707071"/>
	</edge>
	<edge from="34" function="normal" id="3588" length="9.450631472929848" numLanes="1" priority="1" speed="36.11111111111111" spreadType="center" to="29">
		<lane allow="moped bicycle pedestrian custom1 trailer evehicle rail_urban ship private vip custom2 authority delivery rail_electric taxi tram army hov coach motorcycle passenger rail emergency" index="0" length="9.450631472929848" shape="-26.5295,-30.18285 -24.1705,-29.979599999999998 -22.40795,-30.159100000000002 -21.28555,-30.5265 -20.28735,-31.1548 -19.5066,-32.038 -18.98755,-33.098200000000006 -18.81945,-33.6653" speed="36.11111111111111" width="2.4992212166993126"/>
	</edge>
	<edge from="56" function="normal" id="3589" length="10.018365266799304" numLanes="1" priority="1" speed="36.11111111111111" spreadType="center" to="43">
		<lane allow="moped bicycle pedestrian custom1 trailer evehicle rail_urban ship private vip custom2 authority delivery rail_electric taxi tram army hov coach motorcycle passenger rail emergency" index="0" length="10.018365266799304" shape="-133.93925000000002,53.320350000000005 -133.53289999999998,52.30445 -133.25549999999998,51.22285 -133.17565,50.11015 -133.34224999999998,49.00795 -133.78685000000002,47.9854 -134.45915000000002,47.095349999999996 -135.29014999999998,46.34985 -136.2201,45.7308 -137.20704999999998,45.215599999999995" speed="36.11111111111111" width="2.4992944164303865"/>
	</edge>
	<edge from="72" function="normal" id="3590" length="11.451139969741153" numLanes="1" priority="1" speed="36.11111111111111" spreadType="center" to="37">
		<lane allow="moped bicycle pedestrian custom1 trailer evehicle rail_urban ship private vip custom2 authority delivery rail_electric taxi tram army hov coach motorcycle passenger rail emergency" index="0" length="11.451139969741153" shape="75.55834999999999,142.7951 76.5426,140.5929 77.531,139.07845 78.3476,138.19115 79.30940000000001,137.46525 80.4045,136.9639 81.5855,136.7287 82.7904,136.74824999999998 83.97399999999999,136.97975000000002" speed="36.11111111111111" width="2.4953326852345676"/>
	</edge>
	<edge from="14" function="normal" id="3591" length="11.499463258071604" numLanes="1" priority="1" speed="36.11111111111111" spreadType="center" to="5">