<!-- generated on 2020-12-18 16:20:52.049814 by ipykernel_launcher.py v1_2_0+5214-53edc58fcd
-->
<nodes>
	<node id="1" type="from" x="-59.90825" y="146.0559"/>
	<node id="2" type="to" x="-3.7888" y="168.3438"/>
	<node id="3" type="from" x="-4.711650000000001" y="170.66725000000002"/>
	<node id="4" type="to" x="-60.82640000000001" y="148.37855000000002"/>
	<node id="5" type="from" x="27.6705" y="117.6267"/>
	<node id="6" type="to" x="27.4225" y="117.5173"/>
	<node id="7" type="from" x="28.4954" y="115.2733"/>
	<node id="8" type="to" x="28.72535" y="115.37180000000001"/>
	<node id="9" type="from" x="30.72945" y="125.98949999999999"/>
	<node id="10" type="to" x="17.41565" y="176.2748"/>
	<node id="11" type="from" x="14.99895" y="175.63495"/>
	<node id="12" type="to" x="28.3144" y="125.3468"/>
	<node id="13" type="from" x="71.28315" y="135.3954"/>
	<node id="14" type="to" x="38.300399999999996" y="122.01335"/>
	<node id="15" type="from" x="39.2211" y="119.6896"/>
	<node id="16" type="to" x="72.21925" y="133.07805000000002"/>
	<node id="17" type="from" x="-135.9063" y="-193.8821"/>
	<node id="18" type="to" x="6.05555" y="-132.46615"/>
	<node id="19" type="from" x="5.0727" y="-130.16825"/>
	<node id="20" type="to" x="-136.8989" y="-191.58765"/>
	<node id="21" type="from" x="-53.447649999999996" y="81.4077"/>
	<node id="22" type="to" x="-123.7301" y="51.328100000000006"/>
	<node id="23" type="from" x="-122.73045" y="49.03725"/>
	<node id="24" type="to" x="-52.508250000000004" y="79.09135"/>
	<node id="25" type="from" x="87.65125" y="-99.75605"/>
	<node id="26" type="to" x="131.77245" y="-85.7961"/>
	<node id="27" type="from" x="131.55635" y="-83.30574999999999"/>
	<node id="28" type="to" x="86.79820000000001" y="-97.40675"/>
	<node id="29" type="from" x="-18.81945" y="-33.6653"/>
	<node id="30" type="to" x="8.84825" y="-122.5125"/>
	<node id="31" type="from" x="-26.926499999999997" y="-27.71615"/>
	<node id="32" type="to" x="-203.79059999999998" y="-95.8656"/>
	<node id="33" type="from" x="-202.76765" y="-98.14675"/>
	<node id="34" type="to" x="-26.5295" y="-30.18285"/>
	<node id="35" type="from" x="137.13295" y="140.5657"/>
	<node id="36" type="to" x="83.321" y="139.39215000000002"/>
	<node id="37" type="from" x="83.97399999999999" y="136.97975000000002"/>
	<node id="38" type="to" x="137.00639999999999" y="138.06889999999999"/>
	<node id="39" type="from" x="-44.59015" y="76.67615"/>
	<node id="40" type="to" x="-21.59095" y="-21.401249999999997"/>
	<node id="41" type="from" x="14.17435" y="-134.6762"/>
	<node id="42" type="to" x="67.2312" y="-243.04745000000003"/>
	<node id="43" type="from" x="-137.20704999999998" y="45.215599999999995"/>
	<node id="44" type="to" x="-211.3513" y="10.97555"/>
	<node id="45" type="from" x="-210.3031" y="8.7059"/>
	<node id="46" type="to" x="-136.14335" y="42.9537"/>
	<node id="47" type="from" x="17.10805" y="112.9668"/>
	<node id="48" type="to" x="-41.0673" y="86.72915"/>
	<node id="49" type="from" x="-40.039950000000005" y="84.4516"/>
	<node id="50" type="to" x="18.1146" y="110.67885000000001"/>
	<node id="51" type="from" x="78.65395000000001" y="-93.68695"/>
	<node id="52" type="to" x="49.9237" y="21.8611"/>
	<node id="53" type="from" x="47.48355" y="21.31955"/>
	<node id="54" type="to" x="76.33815000000001" y="-94.62610000000001"/>
	<node id="55" type="from" x="-182.51145" y="155.36355"/>
	<node id="56" type="to" x="-133.93925000000002" y="53.320350000000005"/>
	<node id="57" type="from" x="-131.6766" y="54.38055"/>
	<node id="58" type="to" x="-180.26080000000002" y="156.452"/>
	<node id="59" type="from" x="46.65905" y="36.2852"/>
	<node id="60" type="to" x="28.2835" y="107.9864"/>
	<node id="61" type="from" x="25.88615" y="107.28059999999999"/>
	<node id="62" type="to" x="44.22185" y="35.730000000000004"/>
	<node id="63" type="from" x="-64.94005" y="138.89835"/>
	<node id="64" type="to" x="-48.70235" y="89.56665000000001"/>
	<node id="65" type="from" x="18.059849999999997" y="-127.46950000000001"/>
	<node id="66" type="to" x="74.36545000000001" y="-104.8825"/>
	<node id="67" type="from" x="73.41705" y="-102.5701"/>
	<node id="68" type="to" x="17.1253" y="-125.15265"/>
	<node id="69" type="from" x="-71.1343" y="158.6418"/>
	<node id="70" type="to" x="-68.7398" y="151.20094999999998"/>
	<node id="71" type="from" x="45.7732" y="223.7798"/>
	<node id="72" type="to" x="75.55834999999999" y="142.7951"/>
	<node id="73" type="from" x="54.6748" y="28.85745"/>
	<node id="74" type="to" x="85.11170000000001" y="34.7667"/>
	<node id="75" type="from" x="84.63525000000001" y="37.2209"/>
	<node id="76" type="to" x="54.197649999999996" y="31.3105"/>
</nodes>
