<routes>
	<vehicle depart="0.1" departLane="0" departPos="18.104597972437823" departSpeed="0.80871802" id="31" type="passenger">
		<route edges=":29_5 5930"/>
	</vehicle>
	<vehicle depart="0.1" departLane="0" departPos="59.02912922577569" departSpeed="0.0" id="37" type="passenger">
		<route edges="6025 5831"/>
	</vehicle>
	<vehicle depart="0.1" departLane="0" departPos="2.5" departSpeed="2.5284463" id="310" type="passenger">
		<route edges=":29_5 5930"/>
	</vehicle>
	<vehicle depart="0.1" departLane="0" departPos="51.528129635045325" departSpeed="0.0" id="316" type="passenger">
		<route edges="6025 5831"/>
	</vehicle>
	<vehicle depart="0.1" departLane="0" departPos="13.852474848144615" departSpeed="0.060076583" id="318" type="passenger">
		<route edges=":30_4 6028"/>
	</vehicle>
	<vehicle depart="0.1" departLane="0" departPos="44.027130044314966" departSpeed="0.0" id="324" type="passenger">
		<route edges="6025 5831"/>
	</vehicle>
	<vehicle depart="0.1" departLane="0" departPos="11.256913551387902" departSpeed="6.1122183" id="348" type="passenger">
		<route edges=":30_3 5831"/>
	</vehicle>
	<vehicle depart="0.1" departLane="0" departPos="61.922186203187984" departSpeed="0.87996409" id="35" type="motorcycle">
		<route edges="5832 6024"/>
	</vehicle>
	<vehicle depart="0.1" departLane="0" departPos="12.50752951403004" departSpeed="2.7972591" id="30" type="truck">
		<route edges=":29_0 6027 5831"/>
	</vehicle>
	<vehicle depart="0.1" departLane="0" departPos="36.5261297097259" departSpeed="0.0" id="326" type="truck">
		<route edges="6025 5831"/>
	</vehicle>
</routes>
