<!-- generated on Tue Feb  9 22:18:03 2021 by Eclipse SUMO netconvert Version 1.8.0
<configuration xmlns:xsi="http://www.w3.org/2001/XMLSchema-instance" xsi:noNamespaceSchemaLocation="http://sumo.dlr.de/xsd/netconvertConfiguration.xsd">

    <input>
        <node-files value="./converted_scenarios/scenario-factory/ARG_Carcarana-6_3_I-1-1/ARG_Carcarana-6_3_I-1-1.nod.xml"/>
        <edge-files value="./converted_scenarios/scenario-factory/ARG_Carcarana-6_3_I-1-1/ARG_Carcarana-6_3_I-1-1.edg.xml"/>
        <connection-files value="./converted_scenarios/scenario-factory/ARG_Carcarana-6_3_I-1-1/ARG_Carcarana-6_3_I-1-1.con.xml"/>
        <tllogic-files value="./converted_scenarios/scenario-factory/ARG_Carcarana-6_3_I-1-1/ARG_Carcarana-6_3_I-1-1.tll.xml"/>
        <type-files value="/home/zen/commonroad-interactive-benchmarks/install/commonroad-map-tool/crmapconverter/sumo_map/templates/DEU.typ.xml"/>
    </input>

    <output>
        <output-file value="./converted_scenarios/scenario-factory/ARG_Carcarana-6_3_I-1-1/ARG_Carcarana-6_3_I-1-1.net.xml"/>
    </output>

    <processing>
        <geometry.remove.keep-edges.explicit value="true"/>
        <geometry.avoid-overlap value="true"/>
        <offset.disable-normalization value="true"/>
    </processing>

    <junctions>
        <no-turnarounds value="true"/>
        <junctions.internal-link-detail value="20"/>
    </junctions>

    <report>
        <aggregate-warnings value="5"/>
    </report>

    <random_number>
        <seed value="1234"/>
    </random_number>

</configuration>
--><net xmlns:xsi="http://www.w3.org/2001/XMLSchema-instance" version="1.6" junctionCornerDetail="5" junctionLinkDetail="20" limitTurnSpeed="5.50" xsi:noNamespaceSchemaLocation="http://sumo.dlr.de/xsd/net_file.xsd">

    <location netOffset="0.00,0.00" convBoundary="81.19,-762.80,274.36,-568.10" origBoundary="81.19,-762.80,274.36,-568.10" projParameter="!"/>

    <type id="highway.bridleway" priority="1" speed="2.78" allow="pedestrian" oneway="1" width="2.00"/>
    <type id="highway.bus_guideway" priority="1" speed="27.78" allow="bus" oneway="1"/>
    <type id="highway.cycleway" priority="1" speed="8.33" allow="bicycle" oneway="0" width="1.00"/>
    <type id="highway.footway" priority="1" speed="2.78" allow="pedestrian" oneway="1" width="2.00"/>
    <type id="highway.ford" priority="1" speed="2.78" allow="army" oneway="0"/>
    <type id="highway.living_street" priority="2" speed="2.78" disallow="tram rail_urban rail rail_electric rail_fast ship" oneway="0"/>
    <type id="highway.motorway" priority="14" speed="39.44" allow="private emergency authority army vip passenger hov taxi bus coach delivery truck trailer motorcycle evehicle custom1 custom2" oneway="1"/>
    <type id="highway.motorway_link" priority="9" speed="22.22" allow="private emergency authority army vip passenger hov taxi bus coach delivery truck trailer motorcycle evehicle custom1 custom2" oneway="1"/>
    <type id="highway.path" priority="1" speed="2.78" allow="pedestrian bicycle" oneway="0" width="2.00"/>
    <type id="highway.pedestrian" priority="1" speed="2.78" allow="pedestrian" oneway="1" width="2.00"/>
    <type id="highway.primary" priority="12" speed="27.78" disallow="pedestrian tram rail_urban rail rail_electric rail_fast ship" oneway="0"/>
    <type id="highway.primary_link" priority="7" speed="22.22" disallow="pedestrian tram rail_urban rail rail_electric rail_fast ship" oneway="0"/>
    <type id="highway.raceway" priority="15" speed="83.33" allow="vip" oneway="0"/>
    <type id="highway.residential" priority="3" speed="13.89" disallow="pedestrian tram rail_urban rail rail_electric rail_fast ship" oneway="0"/>
    <type id="highway.secondary" priority="11" speed="27.78" disallow="pedestrian tram rail_urban rail rail_electric rail_fast ship" oneway="0"/>
    <type id="highway.secondary_link" priority="6" speed="22.22" disallow="pedestrian tram rail_urban rail rail_electric rail_fast ship" oneway="0"/>
    <type id="highway.service" priority="1" speed="5.56" allow="pedestrian delivery bicycle" oneway="0"/>
    <type id="highway.stairs" priority="1" speed="1.39" allow="pedestrian" oneway="1" width="2.00"/>
    <type id="highway.step" priority="1" speed="1.39" allow="pedestrian" oneway="1" width="2.00"/>
    <type id="highway.steps" priority="1" speed="1.39" allow="pedestrian" oneway="1" width="2.00"/>
    <type id="highway.tertiary" priority="10" speed="22.22" disallow="pedestrian tram rail_urban rail rail_electric rail_fast ship" oneway="0"/>
    <type id="highway.tertiary_link" priority="5" speed="22.22" disallow="pedestrian tram rail_urban rail rail_electric rail_fast ship" oneway="0"/>
    <type id="highway.track" priority="1" speed="5.56" allow="pedestrian motorcycle moped bicycle" oneway="0"/>
    <type id="highway.trunk" priority="13" speed="27.78" disallow="pedestrian bicycle tram rail_urban rail rail_electric rail_fast ship" oneway="0"/>
    <type id="highway.trunk_link" priority="8" speed="22.22" disallow="pedestrian bicycle tram rail_urban rail rail_electric rail_fast ship" oneway="0"/>
    <type id="highway.unclassified" priority="4" speed="13.89" disallow="pedestrian tram rail_urban rail rail_electric rail_fast ship" oneway="0"/>
    <type id="highway.unsurfaced" priority="1" speed="8.33" disallow="tram rail_urban rail rail_electric rail_fast ship" oneway="0"/>
    <type id="railway.highspeed" priority="21" speed="69.44" allow="rail_fast" oneway="1"/>
    <type id="railway.light_rail" priority="19" speed="27.78" allow="rail_urban" oneway="1"/>
    <type id="railway.preserved" priority="16" speed="27.78" allow="rail" oneway="1"/>
    <type id="railway.rail" priority="20" speed="44.44" allow="rail" oneway="1"/>
    <type id="railway.subway" priority="18" speed="27.78" allow="rail_urban" oneway="1"/>
    <type id="railway.tram" priority="17" speed="13.89" allow="tram" oneway="1"/>

    <edge id=":29_0" function="internal">
        <lane id=":29_0_0" index="0" disallow="pedestrian tram rail_urban rail rail_electric rail_fast ship" speed="10.48" length="24.95" width="3.50" shape="182.42,-677.34 179.26,-676.55 177.20,-675.86 175.20,-675.02 173.29,-673.98 172.39,-673.38 171.53,-672.71 170.73,-671.98 169.99,-671.18 169.34,-670.31 168.78,-669.38 168.33,-668.40 167.98,-667.37 167.74,-666.32 167.60,-665.24 167.61,-663.07 167.92,-660.93"/>
    </edge>
    <edge id=":29_1" function="internal">
        <lane id=":29_1_0" index="0" disallow="pedestrian tram rail_urban rail rail_electric rail_fast ship" speed="12.17" length="34.12" width="3.50" shape="182.42,-677.34 178.53,-676.73 175.91,-676.58 173.28,-676.71 170.70,-677.16 169.44,-677.52 168.21,-677.99 167.03,-678.55 165.90,-679.22 164.83,-679.98 163.83,-680.83 162.91,-681.76 161.30,-683.83 159.98,-686.10 158.94,-688.51 158.12,-691.00 157.49,-693.55"/>
    </edge>
    <edge id=":29_2" function="internal">
        <lane id=":29_2_0" index="0" disallow="pedestrian tram rail_urban rail rail_electric rail_fast ship" speed="11.17" length="28.55" width="3.50" shape="160.91,-694.29 161.46,-692.05 162.16,-689.91 163.05,-687.87 164.14,-685.98 165.48,-684.26 166.21,-683.53 167.01,-682.85 167.86,-682.24 168.77,-681.70 169.72,-681.25 170.71,-680.88 171.71,-680.59 173.88,-680.21 176.08,-680.11 178.30,-680.23 181.70,-680.76"/>
    </edge>
    <edge id=":29_3" function="internal">
        <lane id=":29_3_0" index="0" disallow="pedestrian tram rail_urban rail rail_electric rail_fast ship" speed="36.11" length="34.09" width="3.50" shape="160.91,-694.29 164.42,-677.60 167.92,-660.93"/>
    </edge>
    <edge id=":29_4" function="internal">
        <lane id=":29_4_0" index="0" disallow="pedestrian tram rail_urban rail rail_electric rail_fast ship" speed="36.11" length="34.07" width="3.50" shape="164.50,-660.21 160.99,-676.88 157.49,-693.55"/>
    </edge>
    <edge id=":29_5" function="internal">
        <lane id=":29_5_0" index="0" disallow="pedestrian tram rail_urban rail rail_electric rail_fast ship" speed="11.57" length="30.53" width="3.50" shape="164.49,-660.21 164.11,-662.81 164.07,-665.45 164.23,-666.84 164.51,-668.19 164.92,-669.51 165.47,-670.79 166.16,-672.00 166.96,-673.13 167.86,-674.17 168.84,-675.11 169.89,-675.96 171.00,-676.73 173.26,-678.00 175.63,-679.02 178.05,-679.84 181.70,-680.76"/>
    </edge>
    <edge id=":30_0" function="internal">
        <lane id=":30_0_0" index="0" disallow="pedestrian tram rail_urban rail rail_electric rail_fast ship" speed="11.26" length="28.98" width="3.50" shape="171.50,-626.83 170.95,-629.10 170.24,-631.27 169.34,-633.34 168.23,-635.27 166.88,-637.02 166.14,-637.76 165.33,-638.46 164.47,-639.08 163.55,-639.62 162.59,-640.09 161.58,-640.47 160.57,-640.77 158.37,-641.16 156.13,-641.28 153.88,-641.16 150.43,-640.63"/>
    </edge>
    <edge id=":30_1" function="internal">
        <lane id=":30_1_0" index="0" disallow="pedestrian tram rail_urban rail rail_electric rail_fast ship" speed="36.11" length="33.85" width="3.50" shape="171.50,-626.83 168.02,-643.40 164.55,-659.96"/>
    </edge>
    <edge id=":30_2" function="internal">
        <lane id=":30_2_0" index="0" disallow="pedestrian tram rail_urban rail rail_electric rail_fast ship" speed="36.11" length="33.83" width="3.50" shape="167.97,-660.68 171.45,-644.12 174.92,-627.57"/>
    </edge>
    <edge id=":30_3" function="internal">
        <lane id=":30_3_0" index="0" disallow="pedestrian tram rail_urban rail rail_electric rail_fast ship" speed="11.49" length="30.32" width="3.50" shape="167.97,-660.68 168.20,-659.36 168.40,-656.78 168.34,-655.40 168.15,-654.04 167.83,-652.70 167.37,-651.40 166.76,-650.15 166.03,-648.97 165.19,-647.89 164.26,-646.90 163.23,-645.99 161.10,-644.50 158.81,-643.28 156.46,-642.31 154.06,-641.53 150.43,-640.63"/>
    </edge>
    <edge id=":30_4" function="internal">
        <lane id=":30_4_0" index="0" disallow="pedestrian tram rail_urban rail rail_electric rail_fast ship" speed="10.42" length="24.74" width="3.50" shape="149.72,-644.06 152.87,-644.83 154.92,-645.48 156.91,-646.28 158.83,-647.26 160.61,-648.46 161.43,-649.15 162.20,-649.91 162.88,-650.74 163.48,-651.63 163.98,-652.58 164.37,-653.58 164.65,-654.62 164.81,-655.68 164.88,-656.76 164.73,-658.90 164.55,-659.96"/>
    </edge>
    <edge id=":30_5" function="internal">
        <lane id=":30_5_0" index="0" disallow="pedestrian tram rail_urban rail rail_electric rail_fast ship" speed="12.26" length="34.53" width="3.50" shape="149.72,-644.06 153.67,-644.67 156.32,-644.80 158.97,-644.66 161.59,-644.19 162.86,-643.82 164.10,-643.35 165.30,-642.77 166.44,-642.09 167.52,-641.32 168.52,-640.45 169.45,-639.50 171.08,-637.41 172.41,-635.11 173.46,-632.67 174.29,-630.15 174.92,-627.57"/>
    </edge>
    <edge id=":31_0" function="internal">
        <lane id=":31_0_0" index="0" disallow="pedestrian tram rail_urban rail rail_electric rail_fast ship" speed="11.21" length="28.92" width="3.50" shape="238.18,-670.92 237.64,-673.19 236.95,-675.37 236.07,-677.44 234.98,-679.37 233.64,-681.12 232.91,-681.86 232.10,-682.56 231.24,-683.18 230.33,-683.72 229.37,-684.18 228.37,-684.56 227.36,-684.85 225.16,-685.24 222.93,-685.34 220.68,-685.22 217.22,-684.68"/>
    </edge>
    <edge id=":31_1" function="internal">
        <lane id=":31_1_0" index="0" disallow="pedestrian tram rail_urban rail rail_electric rail_fast ship" speed="36.11" length="38.65" width="3.50" shape="255.04,-692.65 236.14,-688.66 217.22,-684.68"/>
    </edge>
    <edge id=":31_2" function="internal">
        <lane id=":31_2_0" index="0" disallow="pedestrian tram rail_urban rail rail_electric rail_fast ship" speed="36.11" length="38.63" width="3.50" shape="216.50,-688.10 235.41,-692.09 254.30,-696.07"/>
    </edge>
    <edge id=":31_3" function="internal">
        <lane id=":31_3_0" index="0" disallow="pedestrian tram rail_urban rail rail_electric rail_fast ship" speed="12.21" length="34.54" width="3.50" shape="216.50,-688.10 220.46,-688.72 223.11,-688.87 225.76,-688.74 228.37,-688.28 229.65,-687.91 230.89,-687.44 232.08,-686.87 233.22,-686.19 234.30,-685.42 235.30,-684.55 236.23,-683.60 237.84,-681.50 239.15,-679.19 240.19,-676.75 240.99,-674.22 241.61,-671.61"/>
    </edge>

    <edge id="5486" from="31" to="25" priority="3" type="highway.residential" spreadType="center" length="70.00" shape="238.85,-684.39 255.46,-602.99">
        <lane id="5486_0" index="0" disallow="pedestrian tram rail_urban rail rail_electric rail_fast ship" speed="36.11" length="70.00" width="3.50" customShape="1" shape="241.61,-671.61 250.44,-627.86 255.46,-602.99"/>
    </edge>
    <edge id="5487" from="27" to="31" priority="3" type="highway.residential" spreadType="center" length="70.00" shape="252.03,-602.31 235.43,-683.69">
        <lane id="5487_0" index="0" disallow="pedestrian tram rail_urban rail rail_electric rail_fast ship" speed="36.11" length="70.00" width="3.50" customShape="1" shape="252.03,-602.31 247.01,-627.17 238.18,-670.93"/>
    </edge>
    <edge id="5831" from="30" to="11" priority="3" type="highway.residential" spreadType="center" length="69.99" shape="163.54,-641.57 81.89,-626.45">
        <lane id="5831_0" index="0" disallow="pedestrian tram rail_urban rail rail_electric rail_fast ship" speed="36.11" length="69.99" width="3.50" customShape="1" shape="150.43,-640.63 109.39,-632.14 81.89,-626.45"/>
    </edge>
    <edge id="5832" from="18" to="30" priority="3" type="highway.residential" spreadType="center" length="69.99" shape="81.19,-629.88 162.90,-645.01">
        <lane id="5832_0" index="0" disallow="pedestrian tram rail_urban rail rail_electric rail_fast ship" speed="36.11" length="69.99" width="3.50" customShape="1" shape="81.19,-629.88 108.68,-635.57 149.73,-644.06"/>
    </edge>
    <edge id="5929" from="31" to="29" priority="3" type="highway.residential" spreadType="center" length="35.58" shape="237.35,-682.27 169.31,-676.11">
        <lane id="5929_0" index="0" disallow="pedestrian tram rail_urban rail rail_electric rail_fast ship" speed="36.11" length="35.58" width="3.50" customShape="1" shape="217.22,-684.68 199.83,-681.01 182.41,-677.34"/>
    </edge>
    <edge id="5930" from="29" to="31" priority="3" type="highway.residential" spreadType="center" length="35.60" shape="169.00,-679.59 237.03,-685.75">
        <lane id="5930_0" index="0" disallow="pedestrian tram rail_urban rail rail_electric rail_fast ship" speed="36.11" length="35.60" width="3.50" customShape="1" shape="181.70,-680.76 199.11,-684.43 216.53,-688.11"/>
    </edge>
    <edge id="5932" from="28" to="31" priority="3" type="highway.residential" spreadType="center" length="19.77" shape="274.36,-696.72 237.71,-682.35">
        <lane id="5932_0" index="0" disallow="pedestrian tram rail_urban rail rail_electric rail_fast ship" speed="36.11" length="19.77" width="3.50" customShape="1" shape="274.36,-696.72 264.70,-694.68 255.02,-692.64"/>
    </edge>
    <edge id="5933" from="31" to="26" priority="3" type="highway.residential" spreadType="center" length="19.77" shape="236.44,-685.60 273.64,-700.15">
        <lane id="5933_0" index="0" disallow="pedestrian tram rail_urban rail rail_electric rail_fast ship" speed="36.11" length="19.77" width="3.50" customShape="1" shape="254.30,-696.07 263.98,-698.11 273.64,-700.15"/>
    </edge>
    <edge id="6024" from="30" to="16" priority="3" type="highway.residential" spreadType="center" length="60.01" shape="164.85,-643.82 187.25,-568.84">
        <lane id="6024_0" index="0" disallow="pedestrian tram rail_urban rail rail_electric rail_fast ship" speed="36.11" length="60.01" width="3.50" customShape="1" shape="174.92,-627.57 181.09,-598.19 187.25,-568.84"/>
    </edge>
    <edge id="6025" from="21" to="30" priority="3" type="highway.residential" spreadType="center" length="60.03" shape="183.83,-568.10 161.50,-642.82">
        <lane id="6025_0" index="0" disallow="pedestrian tram rail_urban rail rail_electric rail_fast ship" speed="36.11" length="60.03" width="3.50" customShape="1" shape="183.83,-568.10 177.67,-597.47 171.50,-626.85"/>
    </edge>
    <edge id="6027" from="29" to="30" priority="3" type="highway.residential" spreadType="center" length="0.28" shape="170.88,-677.55 164.89,-642.90">
        <lane id="6027_0" index="0" disallow="pedestrian tram rail_urban rail rail_electric rail_fast ship" speed="36.11" length="0.28" width="3.50" customShape="1" shape="167.92,-660.93 167.95,-660.80 167.98,-660.66"/>
    </edge>
    <edge id="6028" from="30" to="29" priority="3" type="highway.residential" spreadType="center" length="0.29" shape="161.45,-643.50 167.43,-678.15">
        <lane id="6028_0" index="0" disallow="pedestrian tram rail_urban rail rail_electric rail_fast ship" speed="36.11" length="0.29" width="3.50" customShape="1" shape="164.55,-659.96 164.52,-660.08 164.49,-660.24"/>
    </edge>
    <edge id="6030" from="22" to="29" priority="3" type="highway.residential" spreadType="center" length="70.02" shape="146.53,-762.80 170.85,-678.30">
        <lane id="6030_0" index="0" disallow="pedestrian tram rail_urban rail rail_electric rail_fast ship" speed="36.11" length="70.02" width="3.50" customShape="1" shape="146.53,-762.80 151.80,-737.70 160.92,-694.27"/>
    </edge>
    <edge id="6031" from="29" to="12" priority="3" type="highway.residential" spreadType="center" length="70.00" shape="167.48,-677.34 143.11,-762.06">
        <lane id="6031_0" index="0" disallow="pedestrian tram rail_urban rail rail_electric rail_fast ship" speed="36.11" length="70.00" width="3.50" customShape="1" shape="157.49,-693.55 148.38,-736.98 143.11,-762.06"/>
    </edge>

    <junction id="11" type="dead_end" x="81.89" y="-626.45" incLanes="5831_0" intLanes="" shape="82.24,-624.73 81.53,-628.16" rightOfWay="edgePriority"/>
    <junction id="12" type="dead_end" x="143.11" y="-762.06" incLanes="6031_0" intLanes="" shape="141.40,-761.70 144.83,-762.42" rightOfWay="edgePriority"/>
    <junction id="16" type="dead_end" x="187.25" y="-568.84" incLanes="6024_0" intLanes="" shape="188.97,-569.20 185.54,-568.48" rightOfWay="edgePriority"/>
    <junction id="18" type="dead_end" x="81.19" y="-629.88" incLanes="" intLanes="" shape="81.54,-628.16 80.83,-631.59" rightOfWay="edgePriority"/>
    <junction id="21" type="dead_end" x="183.83" y="-568.10" incLanes="" intLanes="" shape="185.54,-568.46 182.12,-567.74" rightOfWay="edgePriority"/>
    <junction id="22" type="dead_end" x="146.53" y="-762.80" incLanes="" intLanes="" shape="144.82,-762.44 148.25,-763.16" rightOfWay="edgePriority"/>
    <junction id="25" type="dead_end" x="255.46" y="-602.99" incLanes="5486_0" intLanes="" shape="257.18,-603.34 253.74,-602.65" rightOfWay="edgePriority"/>
    <junction id="26" type="dead_end" x="273.64" y="-700.15" incLanes="5933_0" intLanes="" shape="273.28,-701.86 274.00,-698.43" rightOfWay="edgePriority"/>
    <junction id="27" type="dead_end" x="252.03" y="-602.31" incLanes="" intLanes="" shape="253.74,-602.66 250.31,-601.96" rightOfWay="edgePriority"/>
    <junction id="28" type="dead_end" x="274.36" y="-696.72" incLanes="" intLanes="" shape="273.99,-698.43 274.72,-695.01" rightOfWay="edgePriority"/>
    <junction id="29" type="priority" x="169.15" y="-677.85" incLanes="5929_0 6030_0 6028_0" intLanes=":29_0_0 :29_1_0 :29_2_0 :29_3_0 :29_4_0 :29_5_0" shape="182.78,-675.63 181.34,-682.48 176.52,-681.91 172.38,-682.38 168.93,-683.88 166.15,-686.43 164.05,-690.01 162.63,-694.63 155.78,-693.19 162.78,-659.85 169.63,-661.28 169.35,-664.76 170.06,-667.81 171.76,-670.41 174.44,-672.59 178.12,-674.33">
        <request index="0" response="001000" foes="001000" cont="0"/>
        <request index="1" response="111000" foes="111000" cont="0"/>
        <request index="2" response="000000" foes="100000" cont="0"/>
        <request index="3" response="000000" foes="100011" cont="0"/>
        <request index="4" response="000000" foes="000010" cont="0"/>
        <request index="5" response="001100" foes="001110" cont="0"/>
    </junction>
    <junction id="30" type="priority" x="163.19" y="-643.29" incLanes="6025_0 6027_0 5832_0" intLanes=":30_0_0 :30_1_0 :30_2_0 :30_3_0 :30_4_0 :30_5_0" shape="169.79,-626.49 176.64,-627.93 169.68,-661.04 162.83,-659.60 163.08,-656.28 162.33,-653.36 160.58,-650.85 157.84,-648.75 154.10,-647.06 149.37,-645.77 150.79,-638.92 155.68,-639.48 159.88,-638.98 163.39,-637.44 166.21,-634.84 168.35,-631.19">
        <request index="0" response="000000" foes="001000" cont="0"/>
        <request index="1" response="000000" foes="111000" cont="0"/>
        <request index="2" response="000000" foes="100000" cont="0"/>
        <request index="3" response="000011" foes="100011" cont="0"/>
        <request index="4" response="000010" foes="000010" cont="0"/>
        <request index="5" response="001110" foes="001110" cont="0"/>
    </junction>
    <junction id="31" type="priority" x="237.15" y="-684.00" incLanes="5487_0 5932_0 5930_0" intLanes=":31_0_0 :31_1_0 :31_2_0 :31_3_0" shape="236.47,-670.57 243.33,-671.95 242.78,-676.86 243.25,-681.07 244.75,-684.58 247.27,-687.39 250.81,-689.51 255.38,-690.93 253.94,-697.78 216.14,-689.81 217.58,-682.96 222.47,-683.54 226.67,-683.06 230.16,-681.52 232.96,-678.93 235.06,-675.28">
        <request index="0" response="0010" foes="0010" cont="0"/>
        <request index="1" response="0000" foes="1001" cont="0"/>
        <request index="2" response="0000" foes="0000" cont="0"/>
        <request index="3" response="0010" foes="0010" cont="0"/>
    </junction>

    <connection from="5487" to="5929" fromLane="0" toLane="0" contPos="-4.00" shape="238.18,-670.93 237.64,-673.19 236.95,-675.37 236.07,-677.44 234.98,-679.37 233.64,-681.12 232.91,-681.86 232.10,-682.56 231.24,-683.18 230.33,-683.72 229.37,-684.18 228.37,-684.56 227.36,-684.85 225.16,-685.24 222.93,-685.34 220.68,-685.22 217.22,-684.68" via=":31_0_0" dir="r" state="m"/>
    <connection from="5832" to="6028" fromLane="0" toLane="0" contPos="-4.00" shape="149.73,-644.06 152.87,-644.83 154.92,-645.48 156.91,-646.28 158.83,-647.26 160.61,-648.46 161.43,-649.15 162.20,-649.91 162.88,-650.74 163.48,-651.63 163.98,-652.58 164.37,-653.58 164.65,-654.62 164.81,-655.68 164.88,-656.76 164.73,-658.90 164.55,-659.96" via=":30_4_0" dir="r" state="m"/>
    <connection from="5832" to="6024" fromLane="0" toLane="0" contPos="-4.00" shape="149.73,-644.06 153.67,-644.67 156.32,-644.80 158.97,-644.66 161.59,-644.19 162.86,-643.82 164.10,-643.35 165.30,-642.77 166.44,-642.09 167.52,-641.32 168.52,-640.45 169.45,-639.50 171.08,-637.41 172.41,-635.11 173.46,-632.67 174.29,-630.15 174.92,-627.57" via=":30_5_0" dir="l" state="m"/>
    <connection from="5929" to="6027" fromLane="0" toLane="0" contPos="-4.00" shape="182.41,-677.34 179.26,-676.55 177.20,-675.86 175.20,-675.02 173.29,-673.98 172.39,-673.38 171.53,-672.71 170.73,-671.98 169.99,-671.18 169.34,-670.31 168.78,-669.38 168.33,-668.40 167.98,-667.37 167.74,-666.32 167.60,-665.24 167.61,-663.07 167.92,-660.93" via=":29_0_0" dir="r" state="m"/>
    <connection from="5929" to="6031" fromLane="0" toLane="0" contPos="-4.00" shape="182.41,-677.34 178.53,-676.73 175.91,-676.58 173.28,-676.71 170.70,-677.16 169.44,-677.52 168.21,-677.99 167.03,-678.55 165.90,-679.22 164.83,-679.98 163.83,-680.83 162.91,-681.76 161.30,-683.83 159.98,-686.10 158.94,-688.51 158.12,-691.00 157.49,-693.55" via=":29_1_0" dir="l" state="m"/>
    <connection from="5930" to="5933" fromLane="0" toLane="0" contPos="-4.00" shape="216.53,-688.11 235.41,-692.09 254.30,-696.07" via=":31_2_0" dir="s" state="M"/>
    <connection from="5930" to="5486" fromLane="0" toLane="0" contPos="-4.00" shape="216.53,-688.11 220.46,-688.72 223.11,-688.87 225.76,-688.74 228.37,-688.28 229.65,-687.91 230.89,-687.44 232.08,-686.87 233.22,-686.19 234.30,-685.42 235.30,-684.55 236.23,-683.60 237.84,-681.50 239.15,-679.19 240.19,-676.75 240.99,-674.22 241.61,-671.61" via=":31_3_0" dir="l" state="m"/>
    <connection from="5932" to="5929" fromLane="0" toLane="0" contPos="-4.00" shape="255.04,-692.65 236.14,-688.66 217.22,-684.68" via=":31_1_0" dir="s" state="M"/>
    <connection from="6025" to="5831" fromLane="0" toLane="0" contPos="-4.00" shape="171.50,-626.83 170.95,-629.10 170.24,-631.27 169.34,-633.34 168.23,-635.27 166.88,-637.02 166.14,-637.76 165.33,-638.46 164.47,-639.08 163.55,-639.62 162.59,-640.09 161.58,-640.47 160.57,-640.77 158.37,-641.16 156.13,-641.28 153.88,-641.16 150.43,-640.63" via=":30_0_0" dir="r" state="M"/>
    <connection from="6025" to="6028" fromLane="0" toLane="0" contPos="-4.00" shape="171.50,-626.83 168.02,-643.40 164.55,-659.96" via=":30_1_0" dir="s" state="M"/>
    <connection from="6027" to="6024" fromLane="0" toLane="0" contPos="-4.00" shape="167.98,-660.66 171.45,-644.12 174.92,-627.57" via=":30_2_0" dir="s" state="M"/>
    <connection from="6027" to="5831" fromLane="0" toLane="0" contPos="-4.00" shape="167.98,-660.66 168.20,-659.36 168.40,-656.78 168.34,-655.40 168.15,-654.04 167.83,-652.70 167.37,-651.40 166.76,-650.15 166.03,-648.97 165.19,-647.89 164.26,-646.90 163.23,-645.99 161.10,-644.50 158.81,-643.28 156.46,-642.31 154.06,-641.53 150.43,-640.63" via=":30_3_0" dir="l" state="m"/>
    <connection from="6028" to="6031" fromLane="0" toLane="0" contPos="-4.00" shape="164.49,-660.24 160.99,-676.88 157.49,-693.55" via=":29_4_0" dir="s" state="M"/>
    <connection from="6028" to="5930" fromLane="0" toLane="0" contPos="-4.00" shape="164.49,-660.24 164.11,-662.81 164.07,-665.45 164.23,-666.84 164.51,-668.19 164.92,-669.51 165.47,-670.79 166.16,-672.00 166.96,-673.13 167.86,-674.17 168.84,-675.11 169.89,-675.96 171.00,-676.73 173.26,-678.00 175.63,-679.02 178.05,-679.84 181.70,-680.76" via=":29_5_0" dir="l" state="m"/>
    <connection from="6030" to="5930" fromLane="0" toLane="0" contPos="-4.00" shape="160.91,-694.29 161.46,-692.05 162.16,-689.91 163.05,-687.87 164.14,-685.98 165.48,-684.26 166.21,-683.53 167.01,-682.85 167.86,-682.24 168.77,-681.70 169.72,-681.25 170.71,-680.88 171.71,-680.59 173.88,-680.21 176.08,-680.11 178.30,-680.23 181.70,-680.76" via=":29_2_0" dir="r" state="M"/>
    <connection from="6030" to="6027" fromLane="0" toLane="0" contPos="-4.00" shape="160.91,-694.29 164.42,-677.60 167.92,-660.93" via=":29_3_0" dir="s" state="M"/>

    <connection from=":29_0" to="6027" fromLane="0" toLane="0" dir="r" state="M"/>
    <connection from=":29_1" to="6031" fromLane="0" toLane="0" dir="l" state="M"/>
    <connection from=":29_2" to="5930" fromLane="0" toLane="0" dir="r" state="M"/>
    <connection from=":29_3" to="6027" fromLane="0" toLane="0" dir="s" state="M"/>
    <connection from=":29_4" to="6031" fromLane="0" toLane="0" dir="s" state="M"/>
    <connection from=":29_5" to="5930" fromLane="0" toLane="0" dir="l" state="M"/>
    <connection from=":30_0" to="5831" fromLane="0" toLane="0" dir="r" state="M"/>
    <connection from=":30_1" to="6028" fromLane="0" toLane="0" dir="s" state="M"/>
    <connection from=":30_2" to="6024" fromLane="0" toLane="0" dir="s" state="M"/>
    <connection from=":30_3" to="5831" fromLane="0" toLane="0" dir="l" state="M"/>
    <connection from=":30_4" to="6028" fromLane="0" toLane="0" dir="r" state="M"/>
    <connection from=":30_5" to="6024" fromLane="0" toLane="0" dir="l" state="M"/>
    <connection from=":31_0" to="5929" fromLane="0" toLane="0" dir="r" state="M"/>
    <connection from=":31_1" to="5929" fromLane="0" toLane="0" dir="s" state="M"/>
    <connection from=":31_2" to="5933" fromLane="0" toLane="0" dir="s" state="M"/>
    <connection from=":31_3" to="5486" fromLane="0" toLane="0" dir="l" state="M"/>

</net>