<routes>
	<vehicle depart="0.1" departLane="0" departPos="69.90167605707693" departSpeed="0.0" id="326" type="passenger">
		<route edges="77026 77551"/>
	</vehicle>
	<vehicle depart="0.1" departLane="0" departPos="27.166902232541965" departSpeed="12.895938" id="365" type="passenger">
		<route edges=":48_0 77551 77548 77545"/>
	</vehicle>
	<vehicle depart="0.1" departLane="0" departPos="37.069736837169955" departSpeed="8.9251636" id="369" type="passenger">
		<route edges="77554 77551"/>
	</vehicle>
	<vehicle depart="0.1" departLane="0" departPos="22.92803671428646" departSpeed="6.4235751" id="375" type="passenger">
		<route edges="77554 77551"/>
	</vehicle>
	<vehicle depart="0.1" departLane="0" departPos="62.40033277071012" departSpeed="0.0" id="35" type="motorcycle">
		<route edges="77026 77551"/>
	</vehicle>
</routes>
