<routes>
	<vehicle depart="0.1" departLane="1" departPos="0" departSpeed="10.733887" id="1" type="passenger">
		<route edges="26 26 27 24"/>
	</vehicle>
	<vehicle depart="0.1" departLane="0" departPos="90.30817851685576" departSpeed="10.919015" id="2" type="passenger">
		<route edges="26 27 24"/>
	</vehicle>
	<vehicle depart="0.1" departLane="0" departPos="105.30819485266449" departSpeed="11.254623" id="3" type="passenger">
		<route edges="26 27 24"/>
	</vehicle>
</routes>
