<routes>
	<vehicle depart="0.1" departLane="0" departPos="22.378877128656665" departSpeed="12.960836" id="315" type="passenger">
		<route edges=":15_0 52074"/>
	</vehicle>
	<vehicle depart="0.1" departLane="0" departPos="9.59545133477236" departSpeed="9.1758312" id="317" type="passenger">
		<route edges=":15_2 52074"/>
	</vehicle>
</routes>
