<!-- generated on 2020-12-18 15:57:07.592743 by ipykernel_launcher.py v1_2_0+5214-53edc58fcd
-->
<edges>
	<edge from="1" function="normal" id="43343" length="44.97262093823624" numLanes="3" priority="1" speed="36.11111111111111" spreadType="center" to="2">
		<lane allow="moped bicycle pedestrian custom1 trailer evehicle rail_urban ship private truck vip custom2 authority delivery rail_electric taxi tram army hov coach motorcycle passenger bus rail emergency" index="0" length="44.97262093823624" shape="-2.3933,71.77845 -3.2596000000000003,56.78145 -4.12805,41.746300000000005 -4.9965,26.71095" speed="36.11111111111111" width="2.8867804713902303"/>
		<lane allow="moped bicycle pedestrian custom1 trailer evehicle rail_urban ship private truck vip custom2 authority delivery rail_electric taxi tram army hov coach motorcycle passenger bus rail emergency" index="1" length="44.97262093823624" shape="0.5126999999999999,71.6076 -0.3456,56.68985 -1.21055,41.6569 -2.0755,26.62375" speed="36.11111111111111" width="2.863676659471177"/>
		<lane allow="moped bicycle pedestrian custom1 trailer evehicle rail_urban ship private truck vip custom2 authority delivery rail_electric taxi tram army hov coach motorcycle passenger bus rail emergency" index="2" length="44.97262093823624" shape="3.36685,71.43979999999999 2.53465,56.59935 1.783,41.56515 0.9092,26.53465" speed="36.11111111111111" width="2.7829012145600855"/>
	</edge>
	<edge from="2" function="normal" id="43594" length="10.990047443254944" numLanes="3" priority="1" speed="36.11111111111111" spreadType="center" to="3">
		<lane allow="moped bicycle pedestrian custom1 trailer evehicle rail_urban ship private truck vip custom2 authority delivery rail_electric taxi tram army hov coach motorcycle passenger bus rail emergency" index="0" length="10.990047443254944" shape="-4.9965,26.71095 -5.32155,21.1851 -5.646599999999999,15.65915" speed="36.11111111111111" width="2.980925924943456"/>
		<lane allow="moped bicycle pedestrian custom1 trailer evehicle rail_urban ship private truck vip custom2 authority delivery rail_electric taxi tram army hov coach motorcycle passenger bus rail emergency" index="1" length="10.990047443254944" shape="-2.0755,26.62375 -2.35955,21.116 -2.64365,15.6082" speed="36.11111111111111" width="2.863676659471177"/>
		<lane allow="moped bicycle pedestrian custom1 trailer evehicle rail_urban ship private truck vip custom2 authority delivery rail_electric taxi tram army hov coach motorcycle passenger bus rail emergency" index="2" length="10.990047443254944" shape="0.9092,26.53465 0.6519999999999999,21.045650000000002 0.39474999999999993,15.55665" speed="36.11111111111111" width="3.05954023016531"/>
	</edge>
	<edge from="3" function="normal" id="43652" length="14.599987583409064" numLanes="1" priority="1" speed="36.11111111111111" spreadType="center" to="4">
		<lane allow="moped bicycle pedestrian custom1 trailer evehicle rail_urban ship private vip custom2 authority delivery rail_electric taxi tram army hov coach motorcycle passenger rail emergency" index="0" length="14.599987583409064" shape="0.39474999999999993,15.55665 0.3128500000000001,12.187100000000001 0.66025,10.2666 1.1706,8.65955 1.81465,7.29565 2.6948,6.115550000000001 4.0467,5.0169999999999995 5.48255,4.5934 6.854150000000001,4.55475" speed="36.11111111111111" width="2.9750851702094177"/>
	</edge>
	<edge from="4" function="normal" id="43602" length="9.339869187790512" numLanes="2" priority="1" speed="36.11111111111111" spreadType="center" to="5">
		<lane allow="moped bicycle pedestrian custom1 trailer evehicle rail_urban ship private truck vip custom2 authority delivery rail_electric taxi tram army hov coach motorcycle passenger bus rail emergency" index="0" length="9.339869187790512" shape="6.6746,1.1590500000000001 11.544599999999999,1.19415 16.41455,1.2292" speed="36.11111111111111" width="3.4616311949715266"/>
		<lane allow="moped bicycle pedestrian custom1 trailer evehicle rail_urban ship private truck vip custom2 authority delivery rail_electric taxi tram army hov coach motorcycle passenger bus rail emergency" index="1" length="9.339869187790512" shape="6.854150000000001,4.55475 11.5241,4.572699999999999 16.19395,4.5907" speed="36.11111111111111" width="3.2758302291174983"/>
	</edge>
	<edge from="5" function="normal" id="43488" length="37.31782429330328" numLanes="2" priority="1" speed="36.11111111111111" spreadType="center" to="6">
		<lane allow="moped bicycle pedestrian custom1 trailer evehicle rail_urban ship private truck vip custom2 authority delivery rail_electric taxi tram army hov coach motorcycle passenger bus rail emergency" index="0" length="37.31782429330328" shape="16.41455,1.2292 34.960750000000004,2.4392 53.6532,3.6588000000000003" speed="36.11111111111111" width="3.461624647474073"/>
		<lane allow="moped bicycle pedestrian custom1 trailer evehicle rail_urban ship private truck vip custom2 authority delivery rail_electric taxi tram army hov coach motorcycle passenger bus rail emergency" index="1" length="37.31782429330328" shape="16.19395,4.5907 34.77885,5.8032 53.43265,7.020300000000001" speed="36.11111111111111" width="3.275830229117498"/>
	</edge>
	<edge from="3" function="normal" id="43632" length="16.314607196005703" numLanes="2" priority="1" speed="36.11111111111111" spreadType="center" to="7">
		<lane allow="moped bicycle pedestrian custom1 trailer evehicle rail_urban ship private truck vip custom2 authority delivery rail_electric taxi tram army hov coach motorcycle passenger bus rail emergency" index="0" length="16.314607196005703" shape="-5.646599999999999,15.65915 -5.831849999999999,12.50995 -6.0276,9.1826 -6.20505,6.1653 -6.400499999999999,2.84335 -6.6097,-0.71395" speed="36.11111111111111" width="2.988630075803963"/>
		<lane allow="moped bicycle pedestrian custom1 trailer evehicle rail_urban ship private truck vip custom2 authority delivery rail_electric taxi tram army hov coach motorcycle passenger bus rail emergency" index="1" length="16.314607196005703" shape="-2.64365,15.6082 -2.80505,12.4781 -2.97465,9.192599999999999 -3.1303,6.1735500000000005 -3.3012499999999996,2.8587499999999997 -3.484,-0.68475" speed="36.11111111111111" width="3.0181343127833125"/>
	</edge>
	<edge from="7" function="normal" id="43832" length="7.908935571062978" numLanes="2" priority="1" speed="36.11111111111111" spreadType="center" to="8">
		<lane allow="moped bicycle pedestrian custom1 trailer evehicle rail_urban ship private truck vip custom2 authority delivery rail_electric taxi tram army hov coach motorcycle passenger bus rail emergency" index="0" length="7.908935571062978" shape="-6.6097,-0.71395 -6.827350000000001,-4.66245 -7.04495,-8.6109" speed="36.11111111111111" width="2.9417814279786327"/>
		<lane allow="moped bicycle pedestrian custom1 trailer evehicle rail_urban ship private truck vip custom2 authority delivery rail_electric taxi tram army hov coach motorcycle passenger bus rail emergency" index="1" length="7.908935571062978" shape="-3.484,-0.68475 -3.6926500000000004,-4.7385 -3.90135,-8.79215" speed="36.11111111111111" width="3.2491412850167047"/>
	</edge>
	<edge from="8" function="normal" id="43382" length="24.84192312988693" numLanes="2" priority="1" speed="36.11111111111111" spreadType="center" to="9">
		<lane allow="moped bicycle pedestrian custom1 trailer evehicle rail_urban ship private truck vip custom2 authority delivery rail_electric taxi tram army hov coach motorcycle passenger bus rail emergency" index="0" length="24.84192312988693" shape="-7.04495,-8.6109 -7.60905,-21.1021 -7.882949999999999,-33.5483" speed="36.11111111111111" width="2.5239618321202872"/>
		<lane allow="moped bicycle pedestrian custom1 trailer evehicle rail_urban ship private truck vip custom2 authority delivery rail_electric taxi tram army hov coach motorcycle passenger bus rail emergency" index="1" length="24.84192312988693" shape="-3.90135,-8.79215 -4.5877,-21.111150000000002 -5.20035,-33.59995" speed="36.11111111111111" width="2.8425971399408674"/>
	</edge>
	<edge from="9" function="normal" id="43386" length="19.690046078976323" numLanes="2" priority="1" speed="36.11111111111111" spreadType="center" to="10">
		<lane allow="moped bicycle pedestrian custom1 trailer evehicle rail_urban ship private vip custom2 authority delivery rail_electric taxi tram army hov coach motorcycle passenger rail emergency" index="0" length="19.690046078976323" shape="-7.882949999999999,-33.5483 -7.44755,-43.43075 -7.278449999999999,-53.2273" speed="36.11111111111111" width="2.5079225925055977"/>
		<lane allow="moped bicycle pedestrian custom1 trailer evehicle rail_urban ship private truck vip custom2 authority delivery rail_electric taxi tram army hov coach motorcycle passenger bus rail emergency" index="1" length="19.690046078976323" shape="-5.20035,-33.59995 -4.45355,-43.4794 -4.133649999999999,-53.3499" speed="36.11111111111111" width="2.8425971399408674"/>
	</edge>
	<edge from="10" function="normal" id="43390" length="7.330307574653024" numLanes="2" priority="1" speed="36.11111111111111" spreadType="center" to="11">
		<lane allow="moped bicycle pedestrian custom1 trailer evehicle rail_urban ship private truck vip custom2 authority delivery rail_electric taxi tram army hov coach motorcycle passenger bus rail emergency" index="0" length="7.330307574653024" shape="-7.278449999999999,-53.2273 -7.25005,-56.90085 -7.22165,-60.574799999999996" speed="36.11111111111111" width="2.371174192251593"/>
		<lane allow="moped bicycle pedestrian custom1 trailer evehicle rail_urban ship private truck vip custom2 authority delivery rail_electric taxi tram army hov coach motorcycle passenger bus rail emergency" index="1" length="7.330307574653024" shape="-4.133649999999999,-53.3499 -4.20005,-57.01205 -4.2667,-60.679" speed="36.11111111111111" width="3.54239905713628"/>
	</edge>
	<edge from="2" function="normal" id="43640" length="19.17017469173639" numLanes="1" priority="1" speed="36.11111111111111" spreadType="center" to="12">
		<lane allow="moped bicycle pedestrian custom1 trailer evehicle rail_urban ship private vip custom2 authority delivery rail_electric taxi tram army hov coach motorcycle passenger rail emergency" index="0" length="19.17017469173639" shape="-4.9965,26.71095 -5.3445,21.2211 -5.8864,19.0822 -6.587400000000001,17.704749999999997 -7.3580000000000005,16.6194 -8.227699999999999,15.76345 -9.506450000000001,14.80435 -11.446000000000002,14.16865 -15.1721,14.21445" speed="36.11111111111111" width="2.6930276270398728"/>
	</edge>
	<edge from="12" function="normal" id="43476" length="12.648755104554658" numLanes="2" priority="1" speed="36.11111111111111" spreadType="center" to="13">
		<lane allow="moped bicycle pedestrian custom1 trailer evehicle rail_urban ship private truck vip custom2 authority delivery rail_electric taxi tram army hov coach motorcycle passenger bus rail emergency" index="0" length="12.648755104554658" shape="-15.1721,14.21445 -21.583199999999998,13.9283 -27.99435,13.64215" speed="36.11111111111111" width="3.095757694006429"/>
		<lane allow="moped bicycle pedestrian custom1 trailer evehicle rail_urban ship private truck vip custom2 authority delivery rail_electric taxi tram army hov coach motorcycle passenger bus rail emergency" index="1" length="12.648755104554658" shape="-15.07885,10.879950000000001 -21.4,10.677900000000001 -27.72115,10.4759" speed="36.11111111111111" width="3.2602716650610564"/>
	</edge>
	<edge from="13" function="normal" id="43480" length="28.066793631489976" numLanes="2" priority="1" speed="36.11111111111111" spreadType="center" to="14">
		<lane allow="moped bicycle pedestrian custom1 trailer evehicle rail_urban ship private truck vip custom2 authority delivery rail_electric taxi tram army hov coach motorcycle passenger bus rail emergency" index="0" length="28.066793631489976" shape="-27.99435,13.64215 -35.0884,13.2223 -42.2735,12.05685 -49.41745,10.490300000000001 -56.35405,8.248249999999999" speed="36.11111111111111" width="3.095757694006429"/>
		<lane allow="moped bicycle pedestrian custom1 trailer evehicle rail_urban ship private truck vip custom2 authority delivery rail_electric taxi tram army hov coach motorcycle passenger rail emergency" index="1" length="28.066793631489976" shape="-27.72115,10.4759 -34.6323,9.953800000000001 -41.68385,8.86965 -48.3821,7.330500000000001 -55.158100000000005,5.11585" speed="36.11111111111111" width="2.981545803773607"/>
	</edge>
	<edge from="14" function="normal" id="43484" length="13.765727019304128" numLanes="2" priority="1" speed="36.11111111111111" spreadType="center" to="15">
		<lane allow="moped bicycle pedestrian custom1 trailer evehicle rail_urban ship private truck vip custom2 authority delivery rail_electric taxi tram army hov coach motorcycle passenger bus rail emergency" index="0" length="13.765727019304128" shape="-56.35405,8.248249999999999 -62.8696,5.6983999999999995 -69.38515000000001,3.1486" speed="36.11111111111111" width="3.185522470490517"/>
		<lane allow="moped bicycle pedestrian custom1 trailer evehicle rail_urban ship private truck vip custom2 authority delivery rail_electric taxi tram army hov coach motorcycle passenger bus rail emergency" index="1" length="13.765727019304128" shape="-55.158100000000005,5.11585 -61.5888,2.6623 -68.0195,0.20875" speed="36.11111111111111" width="3.2975996012251105"/>
	</edge>
	<edge from="16" function="normal" id="43394" length="7.3144598106089" numLanes="2" priority="1" speed="36.11111111111111" spreadType="center" to="17">
		<lane allow="moped bicycle pedestrian custom1 trailer evehicle rail_urban ship private truck vip custom2 authority delivery rail_electric taxi tram army hov coach motorcycle passenger bus rail emergency" index="0" length="7.3144598106089" shape="2.1971,-60.907 2.3826,-57.254400000000004 2.5679999999999996,-53.60195" speed="36.11111111111111" width="2.9297530697995686"/>
		<lane allow="moped bicycle pedestrian custom1 trailer evehicle rail_urban ship private truck vip custom2 authority delivery rail_electric taxi tram army hov coach motorcycle passenger bus rail emergency" index="1" length="7.3144598106089" shape="-0.9010499999999999,-60.7977 -0.73485,-57.139700000000005 -0.5689,-53.486599999999996" speed="36.11111111111111" width="3.1930859634529103"/>
	</edge>
	<edge from="17" function="normal" id="43400" length="19.771763646549587" numLanes="3" priority="1" speed="36.11111111111111" spreadType="center" to="18">
		<lane allow="moped bicycle pedestrian custom1 trailer evehicle rail_urban ship private truck vip custom2 authority delivery rail_electric taxi tram army hov coach motorcycle passenger bus rail emergency" index="0" length="19.771763646549587" shape="2.5679999999999996,-53.60195 3.03555,-43.7222 3.5031499999999998,-33.84205" speed="36.11111111111111" width="2.914355644048955"/>
		<lane allow="moped bicycle pedestrian custom1 trailer evehicle rail_urban ship private truck vip custom2 authority delivery rail_electric taxi tram army hov coach motorcycle passenger bus rail emergency" index="1" length="19.771763646549587" shape="-0.5689,-53.486599999999996 0.11519999999999997,-43.620400000000004 0.5902499999999999,-33.74995" speed="36.11111111111111" width="2.914355644048955"/>
		<lane allow="moped bicycle pedestrian custom1 trailer evehicle rail_urban ship private truck vip custom2 authority delivery rail_electric taxi tram army hov coach motorcycle passenger bus rail emergency" index="2" length="19.771763646549587" shape="-0.5689,-53.486599999999996 -1.34125,-43.5696 -2.32265,-33.657799999999995" speed="36.11111111111111" width="2.9143588059811716"/>
	</edge>
	<edge from="18" function="normal" id="43406" length="24.582552466773606" numLanes="3" priority="1" speed="36.11111111111111" spreadType="center" to="19">
		<lane allow="moped bicycle pedestrian custom1 trailer evehicle rail_urban ship private truck vip custom2 authority delivery rail_electric taxi tram army hov coach motorcycle passenger bus rail emergency" index="0" length="24.582552466773606" shape="3.5031499999999998,-33.84205 4.141450000000001,-21.5488 4.778449999999999,-9.2926" speed="36.11111111111111" width="2.6833457790601636"/>
		<lane allow="moped bicycle pedestrian custom1 trailer evehicle rail_urban ship private truck vip custom2 authority delivery rail_electric taxi tram army hov coach motorcycle passenger bus rail emergency" index="1" length="24.582552466773606" shape="0.5902499999999999,-33.74995 1.3359500000000002,-21.387749999999997 2.07745,-9.1369" speed="36.11111111111111" width="2.7276221530849907"/>
		<lane allow="moped bicycle pedestrian custom1 trailer evehicle rail_urban ship private truck vip custom2 authority delivery rail_electric taxi tram army hov coach motorcycle passenger bus rail emergency" index="2" length="24.582552466773606" shape="-2.32265,-33.657799999999995 -1.53535,-21.2225 -0.75515,-8.97355" speed="36.11111111111111" width="2.9143588059811716"/>
	</edge>
	<edge from="19" function="normal" id="43838" length="8.327047283399924" numLanes="3" priority="1" speed="36.11111111111111" spreadType="center" to="20">
		<lane allow="moped bicycle pedestrian custom1 trailer evehicle rail_urban ship private truck vip custom2 authority delivery rail_electric taxi tram army hov coach motorcycle passenger bus rail emergency" index="0" length="8.327047283399924" shape="4.778449999999999,-9.2926 5.012499999999999,-4.9479 5.2466,-0.6032500000000001" speed="36.11111111111111" width="2.6711160607506366"/>
		<lane allow="moped bicycle pedestrian custom1 trailer evehicle rail_urban ship private truck vip custom2 authority delivery rail_electric taxi tram army hov coach motorcycle passenger bus rail emergency" index="1" length="8.327047283399924" shape="2.07745,-9.1369 2.2988999999999997,-4.88275 2.5203499999999996,-0.6287" speed="36.11111111111111" width="2.7276221530849907"/>
		<lane allow="moped bicycle pedestrian custom1 trailer evehicle rail_urban ship private truck vip custom2 authority delivery rail_electric taxi tram army hov coach motorcycle passenger bus rail emergency" index="2" length="8.327047283399924" shape="-0.75515,-8.97355 -0.56,-4.8146 -0.36495,-0.6556500000000001" speed="36.11111111111111" width="2.9469900746354747"/>
	</edge>
	<edge from="20" function="normal" id="43638" length="16.086200504447287" numLanes="3" priority="1" speed="36.11111111111111" spreadType="center" to="21">
		<lane allow="moped bicycle pedestrian custom1 trailer evehicle rail_urban ship private truck vip custom2 authority delivery rail_electric taxi tram army hov coach motorcycle passenger bus rail emergency" index="0" length="16.086200504447287" shape="5.2466,-0.6032500000000001 5.4354499999999994,2.90225 5.6129999999999995,6.196999999999999 5.77595,9.22115 5.9465,12.386099999999999 6.1121,15.45965" speed="36.11111111111111" width="2.635179145712868"/>
		<lane allow="moped bicycle pedestrian custom1 trailer evehicle rail_urban ship private truck vip custom2 authority delivery rail_electric taxi tram army hov coach motorcycle passenger bus rail emergency" index="1" length="16.086200504447287" shape="2.5203499999999996,-0.6287 2.7032499999999997,2.88865 2.87495,6.18965 3.0322,9.2122 3.1986999999999997,12.415 3.3594999999999997,15.50635" speed="36.11111111111111" width="2.7816215145127132"/>
		<lane allow="moped bicycle pedestrian custom1 trailer evehicle rail_urban ship private truck vip custom2 authority delivery rail_electric taxi tram army hov coach motorcycle passenger bus rail emergency" index="2" length="16.086200504447287" shape="-0.36495,-0.6556500000000001 -0.19955,2.8742 -0.04454999999999998,6.181850000000001 0.09704999999999997,9.202649999999998 0.249,12.446 0.39474999999999993,15.55665" speed="36.11111111111111" width="2.9892302052535196"/>
	</edge>
	<edge from="20" function="normal" id="43648" length="15.647527078539017" numLanes="1" priority="1" speed="36.11111111111111" spreadType="center" to="22">
		<lane allow="moped bicycle pedestrian custom1 trailer evehicle rail_urban ship private vip custom2 authority delivery rail_electric taxi tram army hov coach motorcycle passenger rail emergency" index="0" length="15.647527078539017" shape="-0.36495,-0.6556500000000001 -0.31115000000000004,0.6132500000000001 -0.49005,4.315799999999999 -0.9281499999999999,6.29515 -1.5325,7.78705 -2.37725,8.9558 -3.6712999999999996,10.0745 -5.857200000000001,10.8264 -7.42645,10.851700000000001" speed="36.11111111111111" width="2.760169699493131"/>
	</edge>
	<edge from="22" function="normal" id="43618" length="7.65245214457431" numLanes="2" priority="1" speed="36.11111111111111" spreadType="center" to="12">
		<lane allow="moped bicycle pedestrian custom1 trailer evehicle rail_urban ship private truck vip custom2 authority delivery rail_electric taxi tram army hov coach motorcycle passenger bus rail emergency" index="0" length="7.65245214457431" shape="-7.2341,14.1051 -11.2031,14.1598 -15.1721,14.21445" speed="36.11111111111111" width="3.1643185174694404"/>
		<lane allow="moped bicycle pedestrian custom1 trailer evehicle rail_urban ship private truck vip custom2 authority delivery rail_electric taxi tram army hov coach motorcycle passenger bus rail emergency" index="1" length="7.65245214457431" shape="-7.42645,10.851700000000001 -11.25265,10.86585 -15.07885,10.879950000000001" speed="36.11111111111111" width="3.3538438261195176"/>
	</edge>
	<edge from="21" function="normal" id="43598" length="10.917968257533417" numLanes="2" priority="1" speed="36.11111111111111" spreadType="center" to="23">
		<lane allow="moped bicycle pedestrian custom1 trailer evehicle rail_urban ship private truck vip custom2 authority delivery rail_electric taxi tram army hov coach motorcycle passenger bus rail emergency" index="0" length="10.917968257533417" shape="6.1121,15.45965 6.40585,20.91075 6.6996,26.361800000000002" speed="36.11111111111111" width="2.6121648110331788"/>
		<lane allow="moped bicycle pedestrian custom1 trailer evehicle rail_urban ship private truck vip custom2 authority delivery rail_electric taxi tram army hov coach motorcycle passenger bus rail emergency" index="1" length="10.917968257533417" shape="3.3594999999999997,15.50635 3.6439500000000002,20.975450000000002 3.9284,26.44455" speed="36.11111111111111" width="2.8708130991062446"/>
	</edge>
	<edge from="23" function="normal" id="43205" length="44.804693447619904" numLanes="2" priority="1" speed="36.11111111111111" spreadType="center" to="24">
		<lane allow="moped bicycle pedestrian custom1 trailer evehicle rail_urban ship private truck vip custom2 authority delivery rail_electric taxi tram army hov coach motorcycle passenger bus rail emergency" index="0" length="44.804693447619904" shape="6.6996,26.361800000000002 7.5924499999999995,41.387100000000004 8.485299999999999,56.41235 9.3573,71.0876" speed="36.11111111111111" width="2.611098198076817"/>
		<lane allow="moped bicycle pedestrian custom1 trailer evehicle rail_urban ship private truck vip custom2 authority delivery rail_electric taxi tram army hov coach motorcycle passenger bus rail emergency" index="1" length="44.804693447619904" shape="3.9284,26.44455 4.81015,41.4724 5.5697,56.504000000000005 6.4049499999999995,71.26114999999999" speed="36.11111111111111" width="2.932705612570072"/>
	</edge>
	<edge from="19" function="normal" id="43646" length="18.742624277463058" numLanes="1" priority="1" speed="36.11111111111111" spreadType="center" to="5">
		<lane allow="moped bicycle pedestrian custom1 trailer evehicle rail_urban ship private vip custom2 authority delivery rail_electric taxi tram army hov coach motorcycle passenger rail emergency" index="0" length="18.742624277463058" shape="4.778449999999999,-9.2926 4.98595,-5.672499999999999 5.7213,-3.2622999999999998 6.38035,-1.8283 7.065950000000001,-0.8266499999999999 7.8542000000000005,-0.19350000000000012 9.7098,0.6214000000000001 12.30185,1.19205 16.41455,1.2292" speed="36.11111111111111" width="2.6833457790601636"/>
	</edge>
	<edge from="25" function="normal" id="43456" length="13.037777576174822" numLanes="3" priority="1" speed="36.11111111111111" spreadType="center" to="26">
		<lane allow="moped bicycle pedestrian custom1 trailer evehicle rail_urban ship private truck vip custom2 authority delivery rail_electric taxi tram army hov coach motorcycle passenger bus rail emergency" index="0" length="13.037777576174822" shape="-63.64195,-9.21475 -57.56895,-6.84515 -51.495999999999995,-4.4756" speed="36.11111111111111" width="3.2563922521711026"/>
		<lane allow="moped bicycle pedestrian custom1 trailer evehicle rail_urban ship private truck vip custom2 authority delivery rail_electric taxi tram army hov coach motorcycle passenger bus rail emergency" index="1" length="13.037777576174822" shape="-65.1443,-5.980650000000001 -58.95925,-3.5542 -52.774249999999995,-1.12775" speed="36.11111111111111" width="3.786149318238784"/>
		<lane allow="moped bicycle pedestrian custom1 trailer evehicle rail_urban ship private truck vip custom2 authority delivery rail_electric taxi tram army hov coach motorcycle passenger bus rail emergency" index="2" length="13.037777576174822" shape="-66.6428,-2.7549 -60.32365,-0.33024999999999993 -54.0045,2.0944000000000003" speed="36.11111111111111" width="3.111898430219084"/>
	</edge>
	<edge from="26" function="normal" id="43464" length="25.046575335412285" numLanes="4" priority="1" speed="36.11111111111111" spreadType="center" to="27">
		<lane allow="moped bicycle pedestrian custom1 trailer evehicle rail_urban ship private truck vip custom2 authority delivery rail_electric taxi tram army hov coach motorcycle passenger rail emergency" index="0" length="25.046575335412285" shape="-51.495999999999995,-4.4756 -45.284949999999995,-3.5541 -39.0213,-3.1338500000000002 -32.7164,-3.1147 -26.53385,-3.28435" speed="36.11111111111111" width="2.885186971411038"/>
		<lane allow="moped bicycle pedestrian custom1 trailer evehicle rail_urban ship private truck vip custom2 authority delivery rail_electric taxi tram army hov coach motorcycle passenger bus rail emergency" index="1" length="25.046575335412285" shape="-51.495999999999995,-4.4756 -45.41845,-2.7517 -39.2946,-1.2817999999999998 -33.03235,-0.36514999999999986 -26.83265,0.17820000000000003" speed="36.11111111111111" width="3.304406520087985"/>
		<lane allow="moped bicycle pedestrian custom1 trailer evehicle rail_urban ship private truck vip custom2 authority delivery rail_electric taxi tram army hov coach motorcycle passenger bus rail emergency" index="2" length="25.046575335412285" shape="-52.774249999999995,-1.12775 -46.449299999999994,0.6310999999999999 -40.1262,2.18005 -33.573949999999996,3.27095 -27.150550000000003,3.86265" speed="36.11111111111111" width="3.330627955806532"/>
		<lane allow="moped bicycle pedestrian custom1 trailer evehicle rail_urban ship private truck vip custom2 authority delivery rail_electric taxi tram army hov coach motorcycle passenger bus rail emergency" index="3" length="25.046575335412285" shape="-54.0045,2.0944000000000003 -47.50705,4.10565 -40.9887,5.6752 -34.11385,6.6662 -27.437350000000002,7.1868" speed="36.11111111111111" width="3.111898430219084"/>
	</edge>
	<edge from="27" function="normal" id="43472" length="11.85414435714534" numLanes="4" priority="1" speed="36.11111111111111" spreadType="center" to="28">
		<lane allow="moped bicycle pedestrian custom1 trailer evehicle rail_urban ship private truck vip custom2 authority delivery rail_electric taxi tram army hov coach motorcycle passenger bus rail emergency" index="0" length="11.85414435714534" shape="-26.53385,-3.28435 -20.6189,-2.90625 -14.70385,-2.52815" speed="36.11111111111111" width="2.885186971411038"/>
		<lane allow="moped bicycle pedestrian custom1 trailer evehicle rail_urban ship private truck vip custom2 authority delivery rail_electric taxi tram army hov coach motorcycle passenger bus rail emergency" index="1" length="11.85414435714534" shape="-26.83265,0.17820000000000003 -20.81765,0.5913499999999999 -14.80265,1.0045499999999998" speed="36.11111111111111" width="3.592705935642382"/>
		<lane allow="moped bicycle pedestrian custom1 trailer evehicle rail_urban ship private truck vip custom2 authority delivery rail_electric taxi tram army hov coach motorcycle passenger bus rail emergency" index="2" length="11.85414435714534" shape="-27.150550000000003,3.86265 -21.02505,4.1666 -14.8996,4.4706" speed="36.11111111111111" width="3.330627955806532"/>
		<lane allow="moped bicycle pedestrian custom1 trailer evehicle rail_urban ship private truck vip custom2 authority delivery rail_electric taxi tram army hov coach motorcycle passenger bus rail emergency" index="3" length="11.85414435714534" shape="-27.437350000000002,7.1868 -21.2129,7.4168 -14.9884,7.6468" speed="36.11111111111111" width="3.012776825455214"/>
	</edge>
	<edge from="28" function="normal" id="43614" length="6.797229514483991" numLanes="3" priority="1" speed="36.11111111111111" spreadType="center" to="29">
		<lane allow="moped bicycle pedestrian custom1 trailer evehicle rail_urban ship private truck vip custom2 authority delivery rail_electric taxi tram army hov coach motorcycle passenger bus rail emergency" index="0" length="6.797229514483991" shape="-14.80265,1.0045499999999998 -11.40415,1.0292999999999999 -8.005600000000001,1.05395" speed="36.11111111111111" width="3.5701170246926086"/>
		<lane allow="moped bicycle pedestrian custom1 trailer evehicle rail_urban ship private truck vip custom2 authority delivery rail_electric taxi tram army hov coach motorcycle passenger bus rail emergency" index="1" length="6.797229514483991" shape="-14.8996,4.4706 -11.3508,4.4845999999999995 -7.802,4.4986" speed="36.11111111111111" width="3.3312064961512067"/>