<?xml version="1.0" encoding="UTF-8"?>

<!-- generated on Fri Dec 18 15:57:07 2020 by Eclipse SUMO netconvert Version 1.8.0
<configuration xmlns:xsi="http://www.w3.org/2001/XMLSchema-instance" xsi:noNamespaceSchemaLocation="http://sumo.dlr.de/xsd/netconvertConfiguration.xsd">

    <input>
        <node-files value="./converted_scenarios/NGSIM/Peachtree/USA_Peach-4_8_I-1-1/nodes.net.xml"/>
        <edge-files value="./converted_scenarios/NGSIM/Peachtree/USA_Peach-4_8_I-1-1/edges.net.xml"/>
        <connection-files value="./converted_scenarios/NGSIM/Peachtree/USA_Peach-4_8_I-1-1/_connections.net.xml"/>
        <tllogic-files value="./converted_scenarios/NGSIM/Peachtree/USA_Peach-4_8_I-1-1/_tll.net.xml"/>
    </input>

    <output>
        <output-file value="./converted_scenarios/NGSIM/Peachtree/USA_Peach-4_8_I-1-1/USA_Peach-4_8_I-1-1.net.xml"/>
    </output>

    <processing>
        <plain.extend-edge-shape value="true"/>
        <geometry.remove.keep-edges.explicit value="true"/>
        <geometry.avoid-overlap value="true"/>
        <offset.disable-normalization value="true"/>
    </processing>

    <junctions>
        <no-turnarounds value="true"/>
        <junctions.internal-link-detail value="20"/>
    </junctions>

    <report>
        <aggregate-warnings value="5"/>
    </report>

    <random_number>
        <seed value="1234"/>
    </random_number>

</configuration>
-->

<net version="1.6" junctionCornerDetail="5" junctionLinkDetail="20" limitTurnSpeed="5.50" xmlns:xsi="http://www.w3.org/2001/XMLSchema-instance" xsi:noNamespaceSchemaLocation="http://sumo.dlr.de/xsd/net_file.xsd">

    <location netOffset="0.00,0.00" convBoundary="-68.70,-60.85,53.54,71.61" origBoundary="-69.39,-60.91,53.65,71.78" projParameter="!"/>

    <edge id=":10_0" function="internal">
        <lane id=":10_0_0" index="0" disallow="bus truck rail_fast" speed="36.11" length="3.17" width="2.37" shape="-7.30,-51.70 -7.27,-54.84"/>
        <lane id=":10_0_1" index="1" disallow="rail_fast" speed="36.11" length="3.17" width="3.54" shape="-4.19,-51.73 -4.16,-54.92"/>
    </edge>
    <edge id=":12_0" function="internal">
        <lane id=":12_0_0" index="0" disallow="bus truck rail_fast" speed="36.11" length="10.39" width="3.10" shape="-7.78,15.37 -8.50,15.14 -9.15,14.94 -9.74,14.77 -10.28,14.63 -10.79,14.52 -11.26,14.42 -11.70,14.35 -12.13,14.29 -12.55,14.25 -12.96,14.22 -13.39,14.20 -13.83,14.18 -14.30,14.17 -14.79,14.17 -15.33,14.16 -15.91,14.15 -16.55,14.14 -17.25,14.12 -18.03,14.09"/>
    </edge>
    <edge id=":12_1" function="internal">
        <lane id=":12_1_0" index="0" disallow="rail_fast" speed="36.11" length="10.86" width="3.10" shape="-7.09,14.10 -18.03,14.09"/>
        <lane id=":12_1_1" index="1" disallow="rail_fast" speed="36.11" length="10.86" width="3.26" shape="-7.13,10.85 -17.92,10.79"/>
    </edge>
    <edge id=":13_0" function="internal">
        <lane id=":13_0_0" index="0" disallow="rail_fast" speed="36.11" length="3.01" width="3.10" shape="-26.41,13.71 -29.45,13.56"/>
        <lane id=":13_0_1" index="1" disallow="bus rail_fast" speed="36.11" length="3.01" width="2.98" shape="-26.22,10.52 -29.20,10.36"/>
    </edge>
    <edge id=":14_0" function="internal">
        <lane id=":14_0_0" index="0" disallow="rail_fast" speed="36.11" length="2.96" width="3.19" shape="-54.88,8.73 -57.70,7.72"/>
        <lane id=":14_0_1" index="1" disallow="bus rail_fast" speed="36.11" length="2.96" width="3.30" shape="-53.76,5.57 -56.51,4.60"/>
    </edge>
    <edge id=":17_0" function="internal">
        <lane id=":17_0_0" index="0" disallow="rail_fast" speed="36.11" length="7.89" width="2.91" shape="2.37,-57.47 2.76,-49.53"/>
        <lane id=":17_0_1" index="1" disallow="rail_fast" speed="36.11" length="7.89" width="2.91" shape="-0.74,-57.34 -0.29,-49.50"/>
        <lane id=":17_0_2" index="2" disallow="rail_fast" speed="36.11" length="7.89" width="2.91" shape="-0.74,-57.34 -0.72,-56.75 -0.69,-56.22 -0.67,-55.75 -0.66,-55.31 -0.64,-54.92 -0.63,-54.55 -0.63,-54.21 -0.63,-53.88 -0.63,-53.57 -0.63,-53.26 -0.64,-52.95 -0.66,-52.62 -0.68,-52.28 -0.70,-51.92 -0.73,-51.52 -0.76,-51.09 -0.79,-50.61 -0.83,-50.08 -0.88,-49.50"/>
    </edge>
    <edge id=":18_0" function="internal">
        <lane id=":18_0_0" index="0" disallow="rail_fast" speed="36.11" length="3.18" width="2.68" shape="3.41,-35.75 3.57,-32.65"/>
        <lane id=":18_0_1" index="1" disallow="rail_fast" speed="36.11" length="3.18" width="2.73" shape="0.50,-35.71 0.66,-32.53"/>
        <lane id=":18_0_2" index="2" disallow="rail_fast" speed="36.11" length="3.18" width="2.91" shape="-2.12,-35.67 -2.15,-35.43 -2.17,-35.21 -2.19,-35.01 -2.21,-34.83 -2.23,-34.67 -2.24,-34.51 -2.26,-34.37 -2.27,-34.24 -2.28,-34.11 -2.29,-33.98 -2.29,-33.85 -2.29,-33.71 -2.29,-33.57 -2.29,-33.42 -2.29,-33.25 -2.28,-33.07 -2.27,-32.88 -2.26,-32.66 -2.24,-32.41"/>
    </edge>
    <edge id=":19_0" function="internal">
        <lane id=":19_0_0" index="0" disallow="bus truck rail_fast" speed="8.36" length="12.54" width="2.68" shape="4.64,-11.99 4.71,-10.79 4.78,-9.66 4.86,-8.60 4.95,-7.59 5.04,-6.65 5.14,-5.76 5.25,-4.95 5.36,-4.19 5.48,-3.49 5.61,-2.86 5.74,-2.29 5.88,-1.78 6.03,-1.34 6.18,-0.95 6.34,-0.63 6.51,-0.37 6.68,-0.17 6.86,-0.04 7.04,0.03"/>
    </edge>
    <edge id=":19_1" function="internal">
        <lane id=":19_1_0" index="0" disallow="rail_fast" speed="36.11" length="12.94" width="2.67" shape="4.64,-11.99 5.33,1.00"/>
        <lane id=":19_1_1" index="1" disallow="rail_fast" speed="36.11" length="12.94" width="2.73" shape="1.91,-11.83 2.61,1.09"/>
        <lane id=":19_1_2" index="2" disallow="rail_fast" speed="36.11" length="12.94" width="2.95" shape="-0.93,-11.67 -0.28,1.19"/>
    </edge>
    <edge id=":2_0" function="internal">
        <lane id=":2_0_0" index="0" disallow="bus truck rail_fast" speed="12.44" length="25.62" width="2.69" shape="-4.19,40.61 -4.34,38.10 -4.50,35.71 -4.66,33.46 -4.82,31.34 -4.98,29.35 -5.15,27.50 -5.31,25.78 -5.49,24.19 -5.66,22.73 -5.84,21.41 -6.02,20.21 -6.21,19.15 -6.40,18.22 -6.59,17.43 -6.78,16.76 -6.98,16.23 -7.18,15.83 -7.39,15.57 -7.59,15.43"/>
    </edge>
    <edge id=":2_1" function="internal">
        <lane id=":2_1_0" index="0" disallow="rail_fast" speed="36.11" length="26.24" width="2.98" shape="-4.19,40.61 -5.72,14.40"/>
        <lane id=":2_1_1" index="1" disallow="rail_fast" speed="36.11" length="26.24" width="2.86" shape="-1.28,40.50 -2.71,14.30"/>
        <lane id=":2_1_2" index="2" disallow="rail_fast" speed="36.11" length="26.24" width="3.06" shape="1.71,40.38 0.33,14.20"/>
    </edge>
    <edge id=":20_0" function="internal">
        <lane id=":20_0_0" index="0" disallow="rail_fast" speed="36.11" length="5.88" width="2.64" shape="5.34,1.20 5.66,7.11"/>
        <lane id=":20_0_1" index="1" disallow="rail_fast" speed="36.11" length="5.88" width="2.78" shape="2.62,1.29 2.93,7.16"/>
        <lane id=":20_0_2" index="2" disallow="rail_fast" speed="36.11" length="5.88" width="2.99" shape="-0.27,1.39 0.00,7.22"/>
    </edge>
    <edge id=":20_3" function="internal">
        <lane id=":20_3_0" index="0" disallow="bus truck rail_fast" speed="7.81" length="10.60" width="2.76" shape="-0.27,1.39 -0.25,2.15 -0.25,2.88 -0.28,3.58 -0.34,4.24 -0.42,4.87 -0.53,5.47 -0.66,6.04 -0.83,6.58 -1.02,7.08 -1.23,7.55 -1.48,7.99 -1.75,8.39 -2.04,8.76 -2.36,9.10 -2.71,9.41 -3.09,9.69 -3.49,9.93 -3.92,10.14 -4.37,10.32"/>
    </edge>
    <edge id=":21_0" function="internal">
        <lane id=":21_0_0" index="0" disallow="rail_fast" speed="36.11" length="6.89" width="2.61" shape="5.67,7.31 6.04,14.16"/>
        <lane id=":21_0_1" index="1" disallow="rail_fast" speed="36.11" length="6.89" width="2.87" shape="2.94,7.36 3.29,14.26"/>
    </edge>
    <edge id=":21_2" function="internal">
        <lane id=":21_2_0" index="0" disallow="bus truck rail_fast" speed="36.11" length="1.24" width="2.87" shape="3.36,15.51 3.29,14.26"/>
    </edge>
    <edge id=":22_0" function="internal">
        <lane id=":22_0_0" index="0" disallow="rail_fast" speed="36.11" length="10.14" width="3.16" shape="3.28,13.96 -6.89,14.10"/>
        <lane id=":22_0_1" index="1" disallow="rail_fast" speed="36.11" length="10.14" width="3.35" shape="3.17,10.81 -6.93,10.85"/>
    </edge>
    <edge id=":22_2" function="internal">
        <lane id=":22_2_0" index="0" disallow="bus truck rail_fast" speed="36.11" length="0.49" width="3.35" shape="-7.43,10.85 -6.93,10.85"/>
    </edge>
    <edge id=":23_0" function="internal">
        <lane id=":23_0_0" index="0" disallow="bus truck rail_fast" speed="36.11" length="11.79" width="2.61" shape="6.68,16.09 6.79,27.88"/>
    </edge>
    <edge id=":23_1" function="internal">
        <lane id=":23_1_0" index="0" disallow="rail_fast" speed="36.11" length="13.55" width="2.61" shape="6.05,14.36 6.79,27.88"/>
        <lane id=":23_1_1" index="1" disallow="rail_fast" speed="36.11" length="13.55" width="2.93" shape="3.31,14.46 4.02,28.00"/>
    </edge>
    <edge id=":26_0" function="internal">
        <lane id=":26_0_0" index="0" disallow="bus rail_fast" speed="36.11" length="7.58" width="2.89" shape="-54.66,-5.71 -54.14,-5.51 -53.67,-5.33 -53.24,-5.17 -52.85,-5.02 -52.50,-4.90 -52.17,-4.79 -51.86,-4.69 -51.56,-4.60 -51.27,-4.52 -50.99,-4.45 -50.69,-4.39 -50.39,-4.33 -50.07,-4.27 -49.72,-4.22 -49.35,-4.16 -48.94,-4.10 -48.49,-4.03 -47.99,-3.96 -47.44,-3.87"/>
        <lane id=":26_0_1" index="1" disallow="rail_fast" speed="36.11" length="7.58" width="3.30" shape="-54.66,-5.71 -54.14,-5.51 -53.67,-5.33 -53.25,-5.16 -52.87,-5.02 -52.51,-4.89 -52.19,-4.77 -51.89,-4.66 -51.60,-4.56 -51.31,-4.46 -51.03,-4.37 -50.75,-4.28 -50.46,-4.19 -50.15,-4.10 -49.82,-4.00 -49.46,-3.90 -49.06,-3.78 -48.62,-3.66 -48.14,-3.52 -47.61,-3.37"/>
        <lane id=":26_0_2" index="2" disallow="rail_fast" speed="36.11" length="7.58" width="3.33" shape="-55.94,-2.37 -55.41,-2.16 -54.93,-1.98 -54.50,-1.81 -54.10,-1.66 -53.74,-1.52 -53.41,-1.40 -53.10,-1.29 -52.80,-1.19 -52.52,-1.09 -52.23,-1.00 -51.94,-0.91 -51.64,-0.82 -51.32,-0.73 -50.98,-0.63 -50.61,-0.52 -50.20,-0.41 -49.76,-0.29 -49.26,-0.15 -48.71,0.00"/>
        <lane id=":26_0_3" index="3" disallow="rail_fast" speed="36.11" length="7.58" width="3.11" shape="-57.18,0.87 -49.83,3.39"/>
    </edge>
    <edge id=":27_0" function="internal">
        <lane id=":27_0_0" index="0" disallow="bus rail_fast" speed="36.11" length="3.87" width="2.89" shape="-28.79,-3.22 -28.50,-3.23 -28.23,-3.24 -28.00,-3.25 -27.78,-3.25 -27.58,-3.26 -27.40,-3.26 -27.23,-3.26 -27.07,-3.27 -26.92,-3.27 -26.76,-3.27 -26.61,-3.26 -26.45,-3.26 -26.28,-3.26 -26.10,-3.25 -25.90,-3.24 -25.68,-3.23 -25.45,-3.21 -25.18,-3.20 -24.89,-3.18"/>
        <lane id=":27_0_1" index="1" disallow="rail_fast" speed="36.11" length="3.87" width="3.59" shape="-29.03,-0.01 -25.17,0.29"/>
        <lane id=":27_0_2" index="2" disallow="rail_fast" speed="36.11" length="3.87" width="3.33" shape="-29.30,3.66 -25.45,3.95"/>
        <lane id=":27_0_3" index="3" disallow="rail_fast" speed="36.11" length="3.87" width="3.01" shape="-29.55,7.02 -25.71,7.25"/>
    </edge>
    <edge id=":28_0" function="internal">
        <lane id=":28_0_0" index="0" disallow="bus truck rail_fast" speed="36.11" length="84.70" width="2.94" shape="-17.19,-2.69 -101.90,-2.89"/>
    </edge>
    <edge id=":28_1" function="internal">
        <lane id=":28_1_0" index="0" disallow="rail_fast" speed="36.11" length="4.03" width="3.57" shape="-17.31,0.83 -13.32,1.02"/>
        <lane id=":28_1_1" index="1" disallow="rail_fast" speed="36.11" length="4.03" width="3.33" shape="-17.42,4.35 -13.40,4.48"/>
        <lane id=":28_1_2" index="2" disallow="rail_fast" speed="36.11" length="4.03" width="3.01" shape="-17.53,7.55 -13.46,7.65"/>
    </edge>
    <edge id=":29_0" function="internal">
        <lane id=":29_0_0" index="0" disallow="rail_fast" speed="36.11" length="7.10" width="3.50" shape="-6.61,1.06 0.50,1.11"/>
        <lane id=":29_0_1" index="1" disallow="rail_fast" speed="36.11" length="7.10" width="3.30" shape="-6.48,4.50 0.62,4.53"/>
        <lane id=":29_0_2" index="2" disallow="rail_fast" speed="36.11" length="7.10" width="3.02" shape="-6.36,7.67 0.74,7.69"/>
    </edge>
    <edge id=":29_3" function="internal">
        <lane id=":29_3_0" index="0" disallow="bus truck rail_fast" speed="7.90" length="13.13" width="2.17" shape="-6.36,7.67 -5.42,7.69 -4.52,7.75 -3.67,7.85 -2.87,7.98 -2.13,8.14 -1.42,8.35 -0.77,8.59 -0.17,8.86 0.39,9.18 0.90,9.53 1.35,9.91 1.77,10.33 2.13,10.79 2.44,11.29 2.71,11.82 2.92,12.39 3.09,12.99 3.21,13.63 3.28,14.31"/>
    </edge>
    <edge id=":3_0" function="internal">
        <lane id=":3_0_0" index="0" disallow="rail_fast" speed="36.11" length="1.56" width="2.99" shape="-5.73,14.20 -5.64,15.76"/>
        <lane id=":3_0_1" index="1" disallow="rail_fast" speed="36.11" length="1.56" width="3.02" shape="-2.72,14.10 -2.64,15.65"/>
    </edge>
    <edge id=":3_2" function="internal">
        <lane id=":3_2_0" index="0" disallow="bus truck rail_fast" speed="36.11" length="0.55" width="2.98" shape="0.32,14.00 0.07,13.51"/>
    </edge>
    <edge id=":31_0" function="internal">
        <lane id=":31_0_0" index="0" disallow="bus truck rail_fast" speed="6.60" length="9.65" width="2.61" shape="15.40,13.78 14.51,13.73 13.67,13.70 12.88,13.68 12.14,13.69 11.44,13.71 10.79,13.75 10.19,13.80 9.64,13.88 9.13,13.97 8.67,14.08 8.26,14.21 7.90,14.36 7.58,14.52 7.31,14.71 7.09,14.91 6.92,15.13 6.79,15.36 6.71,15.62 6.68,15.89"/>
    </edge>
    <edge id=":31_1" function="internal">
        <lane id=":31_1_0" index="0" disallow="rail_fast" speed="36.11" length="11.28" width="3.02" shape="15.40,13.78 4.34,13.95"/>
        <lane id=":31_1_1" index="1" disallow="rail_fast" speed="36.11" length="11.28" width="3.04" shape="15.60,10.76 4.35,10.81"/>
        <lane id=":31_1_2" index="2" disallow="rail_fast" speed="5.16" length="11.28" width="3.03" shape="15.80,7.73 4.27,7.70"/>
    </edge>
    <edge id=":32_0" function="internal">
        <lane id=":32_0_0" index="0" disallow="rail_fast" speed="36.11" length="21.63" width="3.07" shape="4.14,13.95 25.81,13.65"/>
        <lane id=":32_0_1" index="1" disallow="rail_fast" speed="36.11" length="21.63" width="3.15" shape="4.14,10.81 25.72,10.73"/>
    </edge>
    <edge id=":32_2" function="internal">
        <lane id=":32_2_0" index="0" disallow="bus truck rail_fast" speed="36.11" length="21.46" width="2.34" shape="4.23,7.70 25.68,7.96"/>
    </edge>
    <edge id=":4_0" function="internal">
        <lane id=":4_0_0" index="0" disallow="rail_fast" speed="36.11" length="5.76" width="3.46" shape="0.70,1.12 6.53,1.16"/>
        <lane id=":4_0_1" index="1" disallow="rail_fast" speed="36.11" length="5.76" width="3.28" shape="0.82,4.53 6.51,4.55"/>
    </edge>
    <edge id=":4_2" function="internal">
        <lane id=":4_2_0" index="0" disallow="bus truck rail_fast" speed="7.83" length="11.81" width="3.28" shape="0.11,13.31 0.29,12.41 0.48,11.56 0.69,10.76 0.92,10.01 1.17,9.30 1.43,8.65 1.72,8.04 2.02,7.48 2.34,6.97 2.67,6.51 3.03,6.10 3.40,5.73 3.79,5.42 4.20,5.15 4.63,4.94 5.07,4.77 5.54,4.65 6.02,4.58 6.51,4.55"/>
    </edge>
    <edge id=":5_0" function="internal">
        <lane id=":5_0_0" index="0" disallow="bus truck rail_fast" speed="36.11" length="10.81" width="3.46" shape="7.24,0.08 7.98,0.24 8.65,0.38 9.26,0.50 9.82,0.61 10.35,0.70 10.84,0.78 11.30,0.85 11.75,0.90 12.19,0.95 12.63,1.00 13.08,1.03 13.55,1.07 14.04,1.10 14.56,1.13 15.13,1.16 15.74,1.20 16.41,1.23 17.15,1.28 17.96,1.33"/>
    </edge>
    <edge id=":5_1" function="internal">
        <lane id=":5_1_0" index="0" disallow="rail_fast" speed="36.11" length="11.13" width="3.46" shape="6.73,1.16 17.96,1.33"/>
        <lane id=":5_1_1" index="1" disallow="rail_fast" speed="36.11" length="11.13" width="3.28" shape="6.71,4.55 17.74,4.69"/>
    </edge>
    <edge id=":7_0" function="internal">
        <lane id=":7_0_0" index="0" disallow="rail_fast" speed="36.11" length="7.30" width="2.94" shape="-6.07,8.52 -6.50,1.23"/>
        <lane id=":7_0_1" index="1" disallow="rail_fast" speed="36.11" length="7.30" width="3.25" shape="-3.01,8.46 -3.39,1.17"/>
    </edge>
    <edge id=":7_2" function="internal">
        <lane id=":7_2_0" index="0" disallow="bus truck rail_fast" speed="7.33" length="7.97" width="3.25" shape="1.30,7.03 0.84,6.83 0.41,6.61 -0.01,6.39 -0.40,6.15 -0.76,5.91 -1.10,5.65 -1.42,5.37 -1.72,5.09 -1.99,4.79 -2.23,4.48 -2.46,4.16 -2.66,3.83 -2.83,3.49 -2.98,3.13 -3.11,2.76 -3.22,2.38 -3.30,1.99 -3.36,1.58 -3.39,1.17"/>
    </edge>
    <edge id=":8_0" function="internal">
        <lane id=":8_0_0" index="0" disallow="rail_fast" speed="36.11" length="8.73" width="2.52" shape="-6.65,-1.44 -7.11,-10.16"/>
        <lane id=":8_0_1" index="1" disallow="rail_fast" speed="36.11" length="8.73" width="2.84" shape="-3.53,-1.61 -3.99,-10.33"/>
    </edge>
    <edge id=":8_2" function="internal">
        <lane id=":8_2_0" index="0" disallow="bus truck rail_fast" speed="6.95" length="9.35" width="2.52" shape="-11.40,-2.88 -10.94,-2.99 -10.49,-3.13 -10.08,-3.30 -9.69,-3.50 -9.33,-3.73 -9.00,-3.99 -8.69,-4.28 -8.41,-4.61 -8.16,-4.96 -7.93,-5.34 -7.73,-5.75 -7.56,-6.20 -7.42,-6.67 -7.30,-7.18 -7.21,-7.71 -7.15,-8.28 -7.11,-8.87 -7.10,-9.50 -7.11,-10.16"/>
    </edge>
    <edge id=":9_0" function="internal">
        <lane id=":9_0_0" index="0" disallow="bus truck rail_fast" speed="36.11" length="2.73" width="2.51" shape="-7.85,-32.21 -7.82,-35.01"/>
        <lane id=":9_0_1" index="1" disallow="rail_fast" speed="36.11" length="2.73" width="2.84" shape="-5.14,-32.29 -5.15,-32.49 -5.15,-32.67 -5.16,-32.83 -5.17,-32.98 -5.17,-33.11 -5.18,-33.24 -5.18,-33.35 -5.18,-33.46 -5.18,-33.57 -5.18,-33.67 -5.18,-33.78 -5.17,-33.89 -5.16,-34.01 -5.16,-34.13 -5.15,-34.27 -5.14,-34.41 -5.13,-34.58 -5.11,-34.75 -5.10,-34.95"/>
    </edge>

    <edge id="43205" from="23" to="24" priority="1" spreadType="center" length="44.80">
        <lane id="43205_0" index="0" disallow="rail_fast" speed="36.11" length="44.80" width="2.61" customShape="1" shape="6.79,27.88 7.59,41.39 8.49,56.41 9.36,71.09"/>
        <lane id="43205_1" index="1" disallow="rail_fast" speed="36.11" length="44.80" width="2.93" customShape="1" shape="4.02,28.00 4.81,41.47 5.57,56.50 6.41,71.26"/>
    </edge>
    <edge id="43343" from="1" to="2" priority="1" spreadType="center" length="44.97">
        <lane id="43343_0" index="0" disallow="rail_fast" speed="36.11" length="44.97" width="2.89" customShape="1" shape="-2.39,71.78 -3.26,56.78 -4.13,41.75 -4.19,40.61"/>
        <lane id="43343_1" index="1" disallow="rail_fast" speed="36.11" length="44.97" width="2.86" customShape="1" shape="0.51,71.61 -0.35,56.69 -1.21,41.66 -1.28,40.50"/>
        <lane id="43343_2" index="2" disallow="rail_fast" speed="36.11" length="44.97" width="2.78" customShape="1" shape="3.37,71.45 2.53,56.60 1.78,41.57 1.71,40.38"/>
    </edge>
    <edge id="43382" from="8" to="9" priority="1" spreadType="center" length="24.84">
        <lane id="43382_0" index="0" disallow="rail_fast" speed="36.11" length="24.84" width="2.52" customShape="1" shape="-7.11,-10.16 -7.61,-21.10 -7.85,-32.21"/>
        <lane id="43382_1" index="1" disallow="rail_fast" speed="36.11" length="24.84" width="2.84" customShape="1" shape="-3.99,-10.33 -4.59,-21.11 -5.14,-32.29"/>
    </edge>
    <edge id="43386" from="9" to="10" priority="1" spreadType="center" length="19.69">
        <lane id="43386_0" index="0" disallow="bus truck rail_fast" speed="36.11" length="19.69" width="2.51" customShape="1" shape="-7.82,-35.01 -7.45,-43.43 -7.30,-51.70"/>
        <lane id="43386_1" index="1" disallow="rail_fast" speed="36.11" length="19.69" width="2.84" customShape="1" shape="-5.10,-34.95 -4.45,-43.48 -4.19,-51.73"/>
    </edge>
    <edge id="43390" from="10" to="11" priority="1" spreadType="center" length="7.33">
        <lane id="43390_0" index="0" disallow="rail_fast" speed="36.11" length="7.33" width="2.37" customShape="1" shape="-7.27,-54.84 -7.25,-56.90 -7.22,-60.64"/>
        <lane id="43390_1" index="1" disallow="rail_fast" speed="36.11" length="7.33" width="3.54" customShape="1" shape="-4.16,-54.92 -4.20,-57.01 -4.27,-60.68"/>
    </edge>
    <edge id="43394" from="16" to="17" priority="1" spreadType="center" length="7.31">
        <lane id="43394_0" index="0" disallow="rail_fast" speed="36.11" length="7.31" width="2.93" customShape="1" shape="2.20,-60.92 2.37,-57.47"/>
        <lane id="43394_1" index="1" disallow="rail_fast" speed="36.11" length="7.31" width="3.19" customShape="1" shape="-0.90,-60.80 -0.74,-57.34"/>
    </edge>
    <edge id="43400" from="17" to="18" priority="1" spreadType="center" length="19.77">
        <lane id="43400_0" index="0" disallow="rail_fast" speed="36.11" length="19.77" width="2.91" customShape="1" shape="2.76,-49.53 3.04,-43.72 3.41,-35.75"/>
        <lane id="43400_1" index="1" disallow="rail_fast" speed="36.11" length="19.77" width="2.91" customShape="1" shape="-0.29,-49.50 0.12,-43.62 0.50,-35.71"/>
        <lane id="43400_2" index="2" disallow="rail_fast" speed="36.11" length="19.77" width="2.91" customShape="1" shape="-0.88,-49.50 -1.34,-43.57 -2.12,-35.67"/>
    </edge>
    <edge id="43406" from="18" to="19" priority="1" spreadType="center" length="24.58">
        <lane id="43406_0" index="0" disallow="rail_fast" speed="36.11" length="24.58" width="2.68" customShape="1" shape="3.57,-32.65 4.14,-21.55 4.64,-11.99"/>
        <lane id="43406_1" index="1" disallow="rail_fast" speed="36.11" length="24.58" width="2.73" customShape="1" shape="0.66,-32.53 1.34,-21.39 1.91,-11.83"/>
        <lane id="43406_2" index="2" disallow="rail_fast" speed="36.11" length="24.58" width="2.91" customShape="1" shape="-2.24,-32.41 -1.54,-21.22 -0.93,-11.67"/>
    </edge>
    <edge id="43456" from="25" to="26" priority="1" spreadType="center" length="13.04">
        <lane id="43456_0" index="0" disallow="rail_fast" speed="36.11" length="13.04" width="3.26" customShape="1" shape="-63.87,-9.30 -57.57,-6.85 -54.66,-5.71"/>
        <lane id="43456_1" index="1" disallow="rail_fast" speed="36.11" length="13.04" width="3.79" customShape="1" shape="-65.14,-5.98 -58.96,-3.55 -55.94,-2.37"/>
        <lane id="43456_2" index="2" disallow="rail_fast" speed="36.11" length="13.04" width="3.11" customShape="1" shape="-66.42,-2.67 -60.32,-0.33 -57.18,0.87"/>
    </edge>
    <edge id="43464" from="26" to="27" priority="1" spreadType="center" length="25.05">
        <lane id="43464_0" index="0" disallow="bus rail_fast" speed="36.11" length="25.05" width="2.89" customShape="1" shape="-47.44,-3.87 -45.28,-3.55 -39.02,-3.13 -32.72,-3.11 -28.79,-3.22"/>
        <lane id="43464_1" index="1" disallow="rail_fast" speed="36.11" length="25.05" width="3.30" customShape="1" shape="-47.61,-3.37 -45.42,-2.75 -39.29,-1.28 -33.03,-0.37 -29.03,-0.01"/>
        <lane id="43464_2" index="2" disallow="rail_fast" speed="36.11" length="25.05" width="3.33" customShape="1" shape="-48.71,0.00 -46.45,0.63 -40.13,2.18 -33.57,3.27 -29.30,3.66"/>
        <lane id="43464_3" index="3" disallow="rail_fast" speed="36.11" length="25.05" width="3.11" customShape="1" shape="-49.83,3.39 -47.51,4.11 -40.99,5.68 -34.11,6.67 -29.55,7.02"/>
    </edge>
    <edge id="43472" from="27" to="28" priority="1" spreadType="center" length="11.85">
        <lane id="43472_0" index="0" disallow="rail_fast" speed="36.11" length="11.85" width="2.89" customShape="1" shape="-24.89,-3.18 -20.62,-2.91 -17.19,-2.69"/>
        <lane id="43472_1" index="1" disallow="rail_fast" speed="36.11" length="11.85" width="3.59" customShape="1" shape="-25.17,0.29 -20.82,0.59 -17.31,0.83"/>
        <lane id="43472_2" index="2" disallow="rail_fast" speed="36.11" length="11.85" width="3.33" customShape="1" shape="-25.45,3.95 -21.03,4.17 -17.42,4.35"/>
        <lane id="43472_3" index="3" disallow="rail_fast" speed="36.11" length="11.85" width="3.01" customShape="1" shape="-25.71,7.25 -21.21,7.42 -17.53,7.55"/>
    </edge>
    <edge id="43476" from="12" to="13" priority="1" spreadType="center" length="12.65">
        <lane id="43476_0" index="0" disallow="rail_fast" speed="36.11" length="12.65" width="3.10" customShape="1" shape="-18.03,14.09 -21.58,13.93 -26.41,13.71"/>
        <lane id="43476_1" index="1" disallow="rail_fast" speed="36.11" length="12.65" width="3.26" customShape="1" shape="-17.92,10.79 -21.40,10.68 -26.22,10.52"/>
    </edge>
    <edge id="43480" from="13" to="14" priority="1" spreadType="center" length="28.07">
        <lane id="43480_0" index="0" disallow="rail_fast" speed="36.11" length="28.07" width="3.10" customShape="1" shape="-29.45,13.56 -35.09,13.22 -42.27,12.06 -49.42,10.49 -54.88,8.73"/>
        <lane id="43480_1" index="1" disallow="bus rail_fast" speed="36.11" length="28.07" width="2.98" customShape="1" shape="-29.20,10.36 -34.63,9.95 -41.68,8.87 -48.38,7.33 -53.76,5.57"/>
    </edge>
    <edge id="43484" from="14" to="15" priority="1" spreadType="center" length="13.77">
        <lane id="43484_0" index="0" disallow="rail_fast" speed="36.11" length="13.77" width="3.19" customShape="1" shape="-57.70,7.72 -62.87,5.70 -69.29,3.19"/>
        <lane id="43484_1" index="1" disallow="rail_fast" speed="36.11" length="13.77" width="3.30" customShape="1" shape="-56.51,4.60 -61.59,2.66 -68.11,0.17"/>
    </edge>
    <edge id="43488" from="5" to="6" priority="1" spreadType="center" length="37.32">
        <lane id="43488_0" index="0" disallow="rail_fast" speed="36.11" length="37.32" width="3.46" customShape="1" shape="17.96,1.33 34.96,2.44 53.65,3.66"/>
        <lane id="43488_1" index="1" disallow="rail_fast" speed="36.11" length="37.32" width="3.28" customShape="1" shape="17.74,4.69 34.78,5.80 53.43,7.02"/>
    </edge>
    <edge id="43494" from="30" to="31" priority="1" spreadType="center" length="37.32">
        <lane id="43494_0" index="0" disallow="rail_fast" speed="36.11" length="37.32" width="3.02" customShape="1" shape="52.83,16.22 34.28,15.01 15.40,13.78"/>
        <lane id="43494_1" index="1" disallow="rail_fast" speed="36.11" length="37.32" width="3.04" customShape="1" shape="53.03,13.20 34.44,11.99 15.60,10.76"/>
        <lane id="43494_2" index="2" disallow="rail_fast" speed="36.11" length="37.32" width="3.04" customShape="1" shape="53.23,10.17 34.61,8.95 15.80,7.73"/>
    </edge>
    <edge id="43594" from="2" to="3" priority="1" spreadType="center" length="10.99">
        <lane id="43594_0" index="0" disallow="rail_fast" speed="36.11" length="10.99" width="2.98" customShape="1" shape="-5.72,14.40 -5.73,14.20"/>
        <lane id="43594_1" index="1" disallow="rail_fast" speed="36.11" length="10.99" width="2.86" customShape="1" shape="-2.71,14.30 -2.72,14.10"/>
        <lane id="43594_2" index="2" disallow="rail_fast" speed="36.11" length="10.99" width="3.06" customShape="1" shape="0.33,14.20 0.32,14.00"/>
    </edge>
    <edge id="43598" from="21" to="23" priority="1" spreadType="center" length="10.92">
        <lane id="43598_0" index="0" disallow="rail_fast" speed="36.11" length="10.92" width="2.61" acceleration="1" customShape="1" shape="6.04,14.16 6.05,14.36"/>
        <lane id="43598_1" index="1" disallow="rail_fast" speed="36.11" length="10.92" width="2.87" customShape="1" shape="3.29,14.26 3.31,14.46"/>
    </edge>
    <edge id="43602" from="4" to="5" priority="1" spreadType="center" length="9.34">
        <lane id="43602_0" index="0" disallow="rail_fast" speed="36.11" length="9.34" width="3.46" acceleration="1" customShape="1" shape="6.53,1.16 6.73,1.16"/>
        <lane id="43602_1" index="1" disallow="rail_fast" speed="36.11" length="9.34" width="3.28" customShape="1" shape="6.51,4.55 6.71,4.55"/>
    </edge>
    <edge id="43608" from="31" to="32" priority="1" spreadType="center" length="8.24">
        <lane id="43608_0" index="0" disallow="rail_fast" speed="36.11" length="8.24" width="3.02" customShape="1" shape="4.34,13.95 4.14,13.95"/>
        <lane id="43608_1" index="1" disallow="rail_fast" speed="36.11" length="8.24" width="3.04" customShape="1" shape="4.35,10.81 4.14,10.81"/>
        <lane id="43608_2" index="2" disallow="rail_fast" speed="36.11" length="8.24" width="3.03" customShape="1" shape="4.27,7.70 11.50,7.73 4.23,7.70"/>
    </edge>
    <edge id="43614" from="28" to="29" priority="1" spreadType="center" length="6.80">
        <lane id="43614_0" index="0" disallow="rail_fast" speed="36.11" length="6.80" width="3.57" customShape="1" shape="-13.32,1.02 -11.40,1.03 -6.61,1.06"/>
        <lane id="43614_1" index="1" disallow="rail_fast" speed="36.11" length="6.80" width="3.33" customShape="1" shape="-13.40,4.48 -11.35,4.48 -6.48,4.50"/>
        <lane id="43614_2" index="2" disallow="rail_fast" speed="36.11" length="6.80" width="3.01" customShape="1" shape="-13.46,7.65 -11.30,7.66 -6.36,7.67"/>
    </edge>
    <edge id="43618" from="22" to="12" priority="1" spreadType="center" length="7.65">
        <lane id="43618_0" index="0" disallow="rail_fast" speed="36.11" length="7.65" width="3.16" acceleration="1" customShape="1" shape="-6.89,14.10 -7.09,14.10"/>
        <lane id="43618_1" index="1" disallow="rail_fast" speed="36.11" length="7.65" width="3.35" customShape="1" shape="-6.93,10.85 -7.13,10.85"/>
    </edge>
    <edge id="43624" from="29" to="4" priority="1" spreadType="center" length="14.64">
        <lane id="43624_0" index="0" disallow="rail_fast" speed="36.11" length="14.64" width="3.50" customShape="1" shape="0.50,1.11 0.70,1.12"/>
        <lane id="43624_1" index="1" disallow="rail_fast" speed="36.11" length="14.64" width="3.30" customShape="1" shape="0.62,4.53 0.82,4.53"/>
        <lane id="43624_2" index="2" disallow="rail_fast" speed="36.11" length="14.64" width="3.02" customShape="1" shape="0.74,7.69 0.94,7.69"/>
    </edge>
    <edge id="43628" from="32" to="22" priority="1" spreadType="center" length="14.58">
        <lane id="43628_0" index="0" disallow="rail_fast" speed="36.11" length="14.58" width="3.07" customShape="1" shape="25.81,13.65 4.71,13.94 3.28,13.96"/>