<routes>
	<vehicle depart="0.1" departLane="0" departPos="12.498799645483274" departSpeed="6.9799" id="507" type="passenger">
		<route edges="43640 43476 43480 43484"/>
	</vehicle>
	<vehicle depart="0.1" departLane="1" departPos="0" departSpeed="11.5336" id="512" type="passenger">
		<route edges="43832 43382 43386 43390"/>
	</vehicle>
	<vehicle depart="0.1" departLane="1" departPos="11.030192030388356" departSpeed="9.4275" id="520" type="passenger">
		<route edges="43594 43632 43654 43832 43382 43386 43390"/>
	</vehicle>
	<vehicle depart="0.1" departLane="0" departPos="33.39999000050621" departSpeed="6.919" id="560" type="passenger">
		<route edges="43343 43594 43640 43594 43640 43594 43632 43832 43382 43386 43390"/>
	</vehicle>
	<vehicle depart="0.1" departLane="1" departPos="0" departSpeed="14.1671" id="564" type="passenger">
		<route edges="43343 43594 43632 43832 43382 43386 43390"/>
	</vehicle>
	<vehicle depart="0.1" departLane="0" departPos="0" departSpeed="14.6975" id="566" type="passenger">
		<route edges="43343 43594 43640 43476 43480 43484"/>
	</vehicle>
	<vehicle depart="0.1" departLane="2" departPos="0" departSpeed="15.2644" id="569" type="passenger">
		<route edges="43343 43594 43652 43602 43488"/>
	</vehicle>
	<vehicle depart="0.1" departLane="0" departPos="0" departSpeed="14.6182" id="601" type="passenger">
		<route edges="43205"/>
	</vehicle>
	<vehicle depart="0.1" departLane="2" departPos="0" departSpeed="0.021336" id="605" type="passenger">
		<route edges="43838 43648 43624 43624 43654 43624 43602 43488"/>
	</vehicle>
</routes>
