<!-- generated on 2020-12-18 16:27:26.626585 by ipykernel_launcher.py v1_2_0+5214-53edc58fcd
-->
<connections>
	<connection contPos="-4.0" from="240" fromLane="0" keepClear="true" to="261" toLane="0"/>
	<connection contPos="-4.0" from="240" fromLane="0" keepClear="true" to="251" toLane="0"/>
	<connection contPos="-4.0" from="242" fromLane="0" keepClear="true" to="259" toLane="0"/>
	<connection contPos="-4.0" from="242" fromLane="0" keepClear="true" to="257" toLane="0"/>
	<connection contPos="-4.0" from="243" fromLane="0" keepClear="true" to="254" toLane="0"/>
	<connection contPos="-4.0" from="243" fromLane="0" keepClear="true" to="265" toLane="0"/>
	<connection contPos="-4.0" from="244" fromLane="0" keepClear="true" to="260" toLane="0"/>
	<connection contPos="-4.0" from="244" fromLane="0" keepClear="true" to="258" toLane="0"/>
	<connection contPos="-4.0" from="244" fromLane="0" keepClear="true" to="266" toLane="0"/>
	<connection contPos="-4.0" from="245" fromLane="0" keepClear="true" to="252" toLane="0"/>
	<connection contPos="-4.0" from="245" fromLane="0" keepClear="true" to="263" toLane="0"/>
	<connection contPos="-4.0" from="245" fromLane="0" keepClear="true" to="268" toLane="0"/>
	<connection contPos="-4.0" from="247" fromLane="0" keepClear="true" to="253" toLane="0"/>
	<connection contPos="-4.0" from="247" fromLane="0" keepClear="true" to="262" toLane="0"/>
	<connection contPos="-4.0" from="247" fromLane="0" keepClear="true" to="255" toLane="0"/>
	<connection contPos="-4.0" from="250" fromLane="0" keepClear="true" to="267" toLane="0"/>
	<connection contPos="-4.0" from="250" fromLane="0" keepClear="true" to="256" toLane="0"/>
	<connection contPos="-4.0" from="250" fromLane="0" keepClear="true" to="264" toLane="0"/>
	<connection contPos="-4.0" from="251" fromLane="0" keepClear="true" to="241" toLane="0"/>
	<connection contPos="-4.0" from="252" fromLane="0" keepClear="true" to="248" toLane="0"/>
	<connection contPos="-4.0" from="253" fromLane="0" keepClear="true" to="243" toLane="0"/>
	<connection contPos="-4.0" from="254" fromLane="0" keepClear="true" to="241" toLane="0"/>
	<connection contPos="-4.0" from="255" fromLane="0" keepClear="true" to="246" toLane="0"/>
	<connection contPos="-4.0" from="256" fromLane="0" keepClear="true" to="246" toLane="0"/>
	<connection contPos="-4.0" from="257" fromLane="0" keepClear="true" to="239" toLane="0"/>
	<connection contPos="-4.0" from="258" fromLane="0" keepClear="true" to="246" toLane="0"/>
	<connection contPos="-4.0" from="259" fromLane="0" keepClear="true" to="244" toLane="0"/>
	<connection contPos="-4.0" from="260" fromLane="0" keepClear="true" to="249" toLane="0"/>
	<connection contPos="-4.0" from="261" fromLane="0" keepClear="true" to="244" toLane="0"/>
	<connection contPos="-4.0" from="262" fromLane="0" keepClear="true" to="249" toLane="0"/>
	<connection contPos="-4.0" from="263" fromLane="0" keepClear="true" to="249" toLane="0"/>
	<connection contPos="-4.0" from="264" fromLane="0" keepClear="true" to="243" toLane="0"/>
	<connection contPos="-4.0" from="265" fromLane="0" keepClear="true" to="239" toLane="0"/>
	<connection contPos="-4.0" from="266" fromLane="0" keepClear="true" to="248" toLane="0"/>
	<connection contPos="-4.0" from="267" fromLane="0" keepClear="true" to="248" toLane="0"/>
	<connection contPos="-4.0" from="268" fromLane="0" keepClear="true" to="243" toLane="0"/>
</connections>
