<routes>
	<vehicle depart="0.1" departLane="0" departPos="0" departSpeed="0.0" id="30" type="passenger">
		<route edges="254 241"/>
	</vehicle>
	<vehicle depart="0.1" departLane="0" departPos="124.03898174736564" departSpeed="7.7058" id="31" type="passenger">
		<route edges="242 257 239"/>
	</vehicle>
	<vehicle depart="0.1" departLane="0" departPos="0" departSpeed="7.0199" id="32" type="passenger">
		<route edges="243 265 239"/>
	</vehicle>
	<vehicle depart="0.1" departLane="0" departPos="0" departSpeed="7.7233" id="33" type="passenger">
		<route edges="261 244 258 246"/>
	</vehicle>
	<vehicle depart="0.1" departLane="0" departPos="85.92112846220486" departSpeed="6.8193" id="34" type="passenger">
		<route edges="242 257 239"/>
	</vehicle>
	<vehicle depart="0.1" departLane="0" departPos="80.01510250823678" departSpeed="8.3735" id="35" type="passenger">
		<route edges="247 253 243 265 239"/>
	</vehicle>
	<vehicle depart="0.1" departLane="0" departPos="64.37089567063701" departSpeed="8.2487" id="36" type="passenger">
		<route edges="247 253 243 265 239"/>
	</vehicle>
	<vehicle depart="0.1" departLane="0" departPos="7.122579560830764" departSpeed="6.1938" id="37" type="passenger">
		<route edges="263 249"/>
	</vehicle>
	<vehicle depart="0.1" departLane="0" departPos="34.14849481623028" departSpeed="2.1537" id="38" type="passenger">
		<route edges="250 264 243 265 239"/>
	</vehicle>
	<vehicle depart="0.1" departLane="0" departPos="24.35611302510553" departSpeed="0.9501" id="39" type="passenger">
		<route edges="250 264 243 265 239"/>
	</vehicle>
	<vehicle depart="0.1" departLane="0" departPos="0" departSpeed="8.3783" id="310" type="passenger">
		<route edges="244 258 246"/>
	</vehicle>
	<vehicle depart="0.1" departLane="0" departPos="71.4157154545063" departSpeed="6.7978" id="311" type="passenger">
		<route edges="242 257 239"/>
	</vehicle>
	<vehicle depart="0.1" departLane="0" departPos="57.01568050082541" departSpeed="6.829" id="312" type="passenger">
		<route edges="242 257 239"/>
	</vehicle>
	<vehicle depart="0.1" departLane="0" departPos="72.2666083873458" departSpeed="6.8732" id="313" type="passenger">
		<route edges="240 251 241"/>
	</vehicle>
	<vehicle depart="0.1" departLane="0" departPos="63.85643682014868" departSpeed="7.2314" id="314" type="passenger">
		<route edges="245 263 249"/>
	</vehicle>
	<vehicle depart="0.1" departLane="0" departPos="133.78987183312617" departSpeed="8.9037" id="315" type="passenger">
		<route edges="247 253 243 265 239"/>
	</vehicle>
	<vehicle depart="0.1" departLane="0" departPos="112.06950654001753" departSpeed="8.4848" id="316" type="passenger">
		<route edges="247 253 243 265 239"/>
	</vehicle>
	<vehicle depart="0.1" departLane="0" departPos="100.44082755578432" departSpeed="6.8838" id="317" type="passenger">
		<route edges="242 257 239"/>
	</vehicle>
	<vehicle depart="0.1" departLane="0" departPos="95.95253195403119" departSpeed="8.4064" id="318" type="passenger">
		<route edges="247 253 243 265 239"/>
	</vehicle>
	<vehicle depart="0.1" departLane="0" departPos="0" departSpeed="7.3283" id="319" type="passenger">
		<route edges="243 265 239"/>
	</vehicle>
	<vehicle depart="0.1" departLane="0" departPos="0" departSpeed="7.6999" id="320" type="passenger">
		<route edges="244 266 248"/>
	</vehicle>
	<vehicle depart="0.1" departLane="0" departPos="49.317454098800205" departSpeed="7.0949" id="321" type="passenger">
		<route edges="245 252 248"/>
	</vehicle>
	<vehicle depart="0.1" departLane="0" departPos="49.17080214238768" departSpeed="7.9204" id="322" type="passenger">
		<route edges="247 253 243 265 239"/>
	</vehicle>
	<vehicle depart="0.1" departLane="0" departPos="0" departSpeed="6.6359" id="323" type="passenger">
		<route edges="242 257 239"/>
	</vehicle>
	<vehicle depart="0.1" departLane="0" departPos="0" departSpeed="0.3995" id="324" type="passenger">
		<route edges="250 264 243 265 239"/>
	</vehicle>
	<vehicle depart="0.1" departLane="0" departPos="0" departSpeed="6.7916" id="325" type="passenger">
		<route edges="245 268 243 265 239"/>
	</vehicle>
	<vehicle depart="0.1" departLane="0" departPos="0" departSpeed="7.7233" id="326" type="passenger">
		<route edges="247 253 243 265 239"/>
	</vehicle>
	<vehicle depart="0.1" departLane="0" departPos="0" departSpeed="6.3187" id="327" type="passenger">
		<route edges="242 257 239"/>
	</vehicle>
	<vehicle depart="0.1" departLane="0" departPos="0" departSpeed="0.5205" id="329" type="passenger">
		<route edges="250 264 243 265 239"/>
	</vehicle>
	<vehicle depart="0.1" departLane="0" departPos="0" departSpeed="6.2157" id="330" type="passenger">
		<route edges="245 268 243 265 239"/>
	</vehicle>
	<vehicle depart="0.1" departLane="0" departPos="0" departSpeed="7.687" id="331" type="passenger">
		<route edges="240 261 244 258 246"/>
	</vehicle>
	<vehicle depart="0.1" departLane="0" departPos="0" departSpeed="7.1434" id="332" type="passenger">
		<route edges="247 253 243 265 239"/>
	</vehicle>
	<vehicle depart="0.1" departLane="0" departPos="0" departSpeed="5.7732" id="333" type="passenger">
		<route edges="242 257 239"/>
	</vehicle>
	<vehicle depart="0.1" departLane="0" departPos="0" departSpeed="4.9757" id="334" type="passenger">
		<route edges="245 268 243 265 239"/>
	</vehicle>
	<vehicle depart="0.1" departLane="0" departPos="0" departSpeed="3.7759" id="335" type="passenger">
		<route edges="242 257 239"/>
	</vehicle>
	<vehicle depart="0.1" departLane="0" departPos="0" departSpeed="3.9805" id="336" type="passenger">
		<route edges="247 253 243 265 239"/>
	</vehicle>
	<vehicle depart="0.1" departLane="0" departPos="0" departSpeed="2.2703" id="337" type="passenger">
		<route edges="240 251 241"/>
	</vehicle>
	<vehicle depart="0.1" departLane="0" departPos="0" departSpeed="2.4412" id="338" type="passenger">
		<route edges="245 268 243 265 239"/>
	</vehicle>
</routes>
