<!-- generated on 2020-12-18 16:27:26.468299 by ipykernel_launcher.py v1_2_0+5214-53edc58fcd
-->
<edges>
	<edge from="1" function="normal" id="239" length="72.292941742224" numLanes="1" priority="1" speed="36.11111111111111" spreadType="center" to="2">
		<lane allow="moped bicycle pedestrian custom1 trailer evehicle rail_urban ship private truck vip custom2 authority delivery rail_electric taxi tram army hov coach motorcycle passenger bus rail emergency" index="0" length="72.292941742224" shape="84.1575,-13.03755 112.8177,9.01175 141.4553,31.04455" speed="36.11111111111111" width="2.5000275218485086"/>
	</edge>
	<edge from="3" function="normal" id="240" length="72.26660838734581" numLanes="1" priority="1" speed="36.11111111111111" spreadType="center" to="4">
		<lane allow="moped bicycle pedestrian custom1 trailer evehicle rail_urban ship private truck vip custom2 authority delivery rail_electric taxi tram army hov coach motorcycle passenger bus rail emergency" index="0" length="72.26660838734581" shape="139.93085,33.025999999999996 111.29325,10.9932 82.65435,-11.0406" speed="36.11111111111111" width="2.499119022775829"/>
	</edge>
	<edge from="5" function="normal" id="241" length="163.29733842000093" numLanes="1" priority="1" speed="36.11111111111111" spreadType="center" to="6">
		<lane allow="moped bicycle pedestrian custom1 trailer evehicle rail_urban ship private vip custom2 authority delivery rail_electric taxi tram army hov coach motorcycle passenger rail emergency" index="0" length="163.29733842000093" shape="74.02340000000001,-9.3124 65.3058,4.140000000000001 60.09085,12.69375 55.73245,20.5865 51.92575,28.20335 49.10835,34.6248 46.4518,41.65275 43.95685,49.26875 41.96095,56.512100000000004 40.1948,64.32935 38.29685,74.67585 36.6098,86.0726 35.04535,99.50665000000001 32.3186,128.93560000000002 30.60455,145.377" speed="36.11111111111111" width="2.4983230375593997"/>
	</edge>
	<edge from="7" function="normal" id="242" length="164.46249347861624" numLanes="1" priority="1" speed="36.11111111111111" spreadType="center" to="8">
		<lane allow="moped bicycle pedestrian custom1 trailer evehicle rail_urban ship private vip custom2 authority delivery rail_electric taxi tram army hov coach motorcycle passenger rail emergency" index="0" length="164.46249347861624" shape="28.119799999999998,145.10215 29.8382,128.61005 32.5773,99.07025 34.1566,85.5557 35.8619,74.07935 37.781949999999995,63.651300000000006 39.57385,55.75515 41.59855,48.4316 44.12475,40.73565 46.81545,33.628 49.66985,27.126649999999998 53.515100000000004,19.43225 57.91345,11.465599999999998 63.16805,2.84315 71.92785,-10.67435" speed="36.11111111111111" width="2.4999358491769357"/>
	</edge>
	<edge from="9" function="normal" id="243" length="67.3794871756261" numLanes="1" priority="1" speed="36.11111111111111" spreadType="center" to="10">
		<lane allow="moped bicycle pedestrian custom1 trailer evehicle rail_urban ship private truck vip custom2 authority delivery rail_electric taxi tram army hov coach motorcycle passenger bus rail emergency" index="0" length="67.3794871756261" shape="18.54365,-62.0262 45.5617,-41.91795 72.5958,-21.79735" speed="36.11111111111111" width="2.4990639387578675"/>
	</edge>
	<edge from="11" function="normal" id="244" length="67.3521870028626" numLanes="1" priority="1" speed="36.11111111111111" spreadType="center" to="12">
		<lane allow="moped bicycle pedestrian custom1 trailer evehicle rail_urban ship private truck vip custom2 authority delivery rail_electric taxi tram army hov coach motorcycle passenger bus rail emergency" index="0" length="67.3521870028626" shape="71.0806,-19.809600000000003 44.06905,-39.91245 17.05035,-60.022149999999996" speed="36.11111111111111" width="2.499481758285105"/>
	</edge>
	<edge from="13" function="normal" id="245" length="74.54165915241416" numLanes="1" priority="1" speed="36.11111111111111" spreadType="center" to="14">
		<lane allow="moped bicycle pedestrian custom1 trailer evehicle rail_urban ship private truck vip custom2 authority delivery rail_electric taxi tram army hov coach motorcycle passenger bus rail emergency" index="0" length="74.54165915241416" shape="-52.918899999999994,-115.75445 -23.13015,-93.3372 6.6414,-70.93225000000001" speed="36.11111111111111" width="2.4992386700753446"/>
	</edge>
	<edge from="15" function="normal" id="246" length="74.54255744717139" numLanes="1" priority="1" speed="36.11111111111111" spreadType="center" to="16">
		<lane allow="moped bicycle pedestrian custom1 trailer evehicle rail_urban ship private truck vip custom2 authority delivery rail_electric taxi tram army hov coach motorcycle passenger bus rail emergency" index="0" length="74.54255744717139" shape="5.13955,-68.935 -24.63345,-91.33965 -54.4221,-113.7569" speed="36.11111111111111" width="2.499200450144012"/>
	</edge>
	<edge from="17" function="normal" id="247" length="199.71336875456728" numLanes="1" priority="1" speed="36.11111111111111" spreadType="center" to="18">
		<lane allow="moped bicycle pedestrian custom1 trailer evehicle rail_urban ship private vip custom2 authority delivery rail_electric taxi tram army hov coach motorcycle passenger rail emergency" index="0" length="199.71336875456728" shape="-60.68755,126.8549 -55.25195,97.59694999999999 -52.4962,84.2607 -50.83,77.39959999999999 -47.216499999999996,65.3193 -42.0437,49.4991 -33.171099999999996,23.74825 -28.42155,10.98535 -22.353650000000002,-3.9704499999999996 -17.0963,-15.98405 -11.686350000000001,-27.373649999999998 -7.5029,-35.43065 -0.30140000000000006,-48.16175 6.6073,-59.87675" speed="36.11111111111111" width="2.4992860440533815"/>
	</edge>
	<edge from="19" function="normal" id="248" length="198.8172754731328" numLanes="1" priority="1" speed="36.11111111111111" spreadType="center" to="20">
		<lane allow="moped bicycle pedestrian custom1 trailer evehicle rail_urban ship private vip custom2 authority delivery rail_electric taxi tram army hov coach motorcycle passenger rail emergency" index="0" length="198.8172754731328" shape="8.74345,-58.579800000000006 1.86615,-46.91615 -5.30335,-34.2428 -9.4567,-26.24305 -14.836,-14.91565 -20.0661,-2.9613 -26.1064,11.9293 -30.8326,24.63315 -39.67675,50.303650000000005 -44.83025,66.06445 -48.4223,78.071 -50.0697,84.86500000000001 -52.810500000000005,98.13895 -58.23125,127.3201" speed="36.11111111111111" width="2.4994477730090687"/>
	</edge>
	<edge from="21" function="normal" id="249" length="34.15284346459646" numLanes="1" priority="1" speed="36.11111111111111" spreadType="center" to="22">
		<lane allow="moped bicycle pedestrian custom1 trailer evehicle rail_urban ship private truck vip custom2 authority delivery rail_electric taxi tram army hov coach motorcycle passenger bus rail emergency" index="0" length="34.15284346459646" shape="15.20515,-72.44229999999999 25.63825,-85.9506 36.081649999999996,-99.4717" speed="36.11111111111111" width="2.499448661205107"/>
	</edge>
	<edge from="23" function="normal" id="250" length="34.14849481623506" numLanes="1" priority="1" speed="36.11111111111111" spreadType="center" to="24">
		<lane allow="moped bicycle pedestrian custom1 trailer evehicle rail_urban ship private truck vip custom2 authority delivery rail_electric taxi tram army hov coach motorcycle passenger bus rail emergency" index="0" length="34.14849481623506" shape="38.0603,-97.94364999999999 27.616750000000003,-84.42235 17.1858,-70.9182" speed="36.11111111111111" width="2.499454996594254"/>
	</edge>
	<edge from="4" function="normal" id="251" length="10.278796412032092" numLanes="1" priority="1" speed="36.11111111111111" spreadType="center" to="5">
		<lane allow="moped bicycle pedestrian custom1 trailer evehicle rail_urban ship private vip custom2 authority delivery rail_electric taxi tram army hov coach motorcycle passenger rail emergency" index="0" length="10.278796412032092" shape="82.65435,-11.0406 81.71074999999999,-11.6842 80.6926,-12.20335 79.59875,-12.53065 78.46015,-12.598849999999999 77.3478,-12.34695 76.33635,-11.81835 75.45425,-11.0923 74.69059999999999,-10.241399999999999 74.02340000000001,-9.3124" speed="36.11111111111111" width="2.4983230375593997"/>
	</edge>
	<edge from="14" function="normal" id="252" length="14.049528184266958" numLanes="1" priority="1" speed="36.11111111111111" spreadType="center" to="19">
		<lane allow="moped bicycle pedestrian custom1 trailer evehicle rail_urban ship private vip custom2 authority delivery rail_electric taxi tram army hov coach motorcycle passenger rail emergency" index="0" length="14.049528184266958" shape="6.6414,-70.93225000000001 7.847300000000001,-69.9136 8.89695,-68.76429999999999 9.74365,-67.45955000000001 10.315999999999999,-66.0139 10.550699999999999,-64.4768 10.4528,-62.924499999999995 10.07905,-61.41395 9.49455,-59.97085 8.74345,-58.579800000000006" speed="36.11111111111111" width="2.4992386700753446"/>
	</edge>
	<edge from="18" function="normal" id="253" length="14.227539155404546" numLanes="1" priority="1" speed="36.11111111111111" spreadType="center" to="9">
		<lane allow="moped bicycle pedestrian custom1 trailer evehicle rail_urban ship private vip custom2 authority delivery rail_electric taxi tram army hov coach motorcycle passenger rail emergency" index="0" length="14.227539155404546" shape="6.6073,-59.87675 7.502649999999999,-61.199349999999995 8.5457,-62.38415 9.7768,-63.369150000000005 11.20035,-64.04095 12.7517,-64.29915 14.31805,-64.13815 15.8158,-63.6436 17.218049999999998,-62.91805 18.54365,-62.0262" speed="36.11111111111111" width="2.4992860440533815"/>
	</edge>
	<edge from="10" function="normal" id="254" length="14.172435862356433" numLanes="1" priority="1" speed="36.11111111111111" spreadType="center" to="5">
		<lane allow="moped bicycle pedestrian custom1 trailer evehicle rail_urban ship private vip custom2 authority delivery rail_electric taxi tram army hov coach motorcycle passenger rail emergency" index="0" length="14.172435862356433" shape="72.5958,-21.79735 73.68125,-20.887349999999998 74.6404,-19.843 75.41489999999999,-18.65665 75.9416,-17.342399999999998 76.18090000000001,-15.9472 76.13445,-14.5315 75.84585,-13.143699999999999 75.36785,-11.80845 74.7483,-10.5321 74.02340000000001,-9.3124" speed="36.11111111111111" width="2.4983230375593997"/>
	</edge>
	<edge from="18" function="normal" id="255" length="10.337007143193636" numLanes="1" priority="1" speed="36.11111111111111" spreadType="center" to="15">
		<lane allow="moped bicycle pedestrian custom1 trailer evehicle rail_urban ship private vip custom2 authority delivery rail_electric taxi tram army hov coach motorcycle passenger rail emergency" index="0" length="10.337007143193636" shape="6.6073,-59.87675 7.19745,-60.967 7.64975,-62.07085 7.9323999999999995,-63.185249999999996 8.01085,-64.28625 7.8565499999999995,-65.348 7.461650000000001,-66.3538 6.8541,-67.2923 6.06855,-68.15129999999999 5.13955,-68.935" speed="36.11111111111111" width="2.499200450144012"/>
	</edge>
	<edge from="24" function="normal" id="256" length="13.947281032485183" numLanes="1" priority="1" speed="36.11111111111111" spreadType="center" to="15">
		<lane allow="moped bicycle pedestrian custom1 trailer evehicle rail_urban ship private vip custom2 authority delivery rail_electric taxi tram army hov coach motorcycle passenger rail emergency" index="0" length="13.947281032485183" shape="17.1858,-70.9182 16.16955,-69.7234 15.04435,-68.6627 13.778849999999998,-67.77595 12.37045,-67.14269999999999 10.8537,-66.85759999999999 9.3137,-66.9553 7.83035,-67.38465 6.4427,-68.06540000000001 5.13955,-68.935" speed="36.11111111111111" width="2.499200450144012"/>
	</edge>
	<edge from="8" function="normal" id="257" length="14.444783822414724" numLanes="1" priority="1" speed="36.11111111111111" spreadType="center" to="1">
		<lane allow="moped bicycle pedestrian custom1 trailer evehicle rail_urban ship private vip custom2 authority delivery rail_electric taxi tram army hov coach motorcycle passenger rail emergency" index="0" length="14.444783822414724" shape="71.92785,-10.67435 72.80959999999999,-11.89885 73.8481,-13.0441 75.0955,-14.05265 76.5861,-14.811599999999999 78.2575,-15.17015 79.94965,-15.06625 81.5124,-14.5963 82.91405,-13.883500000000002 84.1575,-13.03755" speed="36.11111111111111" width="2.5001658364996455"/>
	</edge>
	<edge from="12" function="normal" id="258" length="14.87635885063713" numLanes="1" priority="1" speed="36.11111111111111" spreadType="center" to="15">
		<lane allow="moped bicycle pedestrian custom1 trailer evehicle rail_urban ship private truck vip custom2 authority delivery rail_electric taxi tram army hov coach motorcycle passenger bus rail emergency" index="0" length="14.87635885063713" shape="17.05035,-60.022149999999996 11.096,-64.4772 5.13955,-68.935" speed="36.11111111111111" width="2.499200450144012"/>
	</edge>
	<edge from="8" function="normal" id="259" length="10.39192198325086" numLanes="1" priority="1" speed="36.11111111111111" spreadType="center" to="11">
		<lane allow="moped bicycle pedestrian custom1 trailer evehicle rail_urban ship private vip custom2 authority delivery rail_electric taxi tram army hov coach motorcycle passenger rail emergency" index="0" length="10.39192198325086" shape="71.92785,-10.67435 72.5042,-11.6421 72.9937,-12.638850000000001 73.36529999999999,-13.6504 73.58955,-14.66315 73.63974999999999,-15.6556 73.49459999999999,-16.6079 73.14985,-17.50745 72.6174,-18.34175 71.92085,-19.10685 71.0806,-19.809600000000003" speed="36.11111111111111" width="2.4999211907578234"/>
	</edge>
	<edge from="12" function="normal" id="260" length="14.448567008105426" numLanes="1" priority="1" speed="36.11111111111111" spreadType="center" to="21">
		<lane allow="moped bicycle pedestrian custom1 trailer evehicle rail_urban ship private vip custom2 authority delivery rail_electric taxi tram army hov coach motorcycle passenger rail emergency" index="0" length="14.448567008105426" shape="17.05035,-60.022149999999996 15.799900000000001,-61.052800000000005 14.690349999999999,-62.20955 13.773499999999999,-63.52275 13.1413,-64.99275 12.89175,-66.57275 13.05025,-68.16495 13.543700000000001,-69.6882 14.2844,-71.1094 15.20515,-72.44229999999999" speed="36.11111111111111" width="2.499448661205107"/>
	</edge>
	<edge from="4" function="normal" id="261" length="14.520573351715488" numLanes="1" priority="1" speed="36.11111111111111" spreadType="center" to="11">
		<lane allow="moped bicycle pedestrian custom1 trailer evehicle rail_urban ship private truck vip custom2 authority delivery rail_electric taxi tram army hov coach motorcycle passenger bus rail emergency" index="0" length="14.520573351715488" shape="82.65435,-11.0406 76.8785,-15.416350000000001 71.0806,-19.809600000000003" speed="36.11111111111111" width="2.499119022775829"/>
	</edge>
	<edge from="18" function="normal" id="262" length="15.232558876036872" numLanes="1" priority="1" speed="36.11111111111111" spreadType="center" to="21">
		<lane allow="moped bicycle pedestrian custom1 trailer evehicle rail_urban ship private vip custom2 authority delivery rail_electric taxi tram army hov coach motorcycle passenger rail emergency" index="0" length="15.232558876036872" shape="6.6073,-59.87675 10.11685,-65.3848 13.8817,-70.7002 15.20515,-72.44229999999999" speed="36.11111111111111" width="2.4992860440533815"/>
	</edge>
	<edge from="14" function="normal" id="263" length="10.00277302408921" numLanes="1" priority="1" speed="36.11111111111111" spreadType="center" to="21">
		<lane allow="moped bicycle pedestrian custom1 trailer evehicle rail_urban ship private vip custom2 authority delivery rail_electric taxi tram army hov coach motorcycle passenger rail emergency" index="0" length="10.00277302408921" shape="6.6414,-70.93225000000001 7.6271,-70.2728 8.6402,-69.77430000000001 9.6705,-69.4748 10.69955,-69.41325 11.7034,-69.61345 12.66475,-70.06065 13.5748,-70.7113 14.42085,-71.51724999999999 15.20515,-72.44229999999999" speed="36.11111111111111" width="2.4992386700753446"/>
	</edge>
	<edge from="24" function="normal" id="264" length="10.43014822184019" numLanes="1" priority="1" speed="36.11111111111111" spreadType="center" to="9">
		<lane allow="moped bicycle pedestrian custom1 trailer evehicle rail_urban ship private vip custom2 authority delivery rail_electric taxi tram army hov coach motorcycle passenger rail emergency" index="0" length="10.43014822184019" shape="17.1858,-70.9182 16.47335,-69.88974999999999 15.91975,-68.83494999999999 15.5666,-67.7548 15.4555,-66.68105 15.626349999999999,-65.6334 16.066399999999998,-64.63329999999999 16.7324,-63.69305 17.571800000000003,-62.82485 18.54365,-62.0262" speed="36.11111111111111" width="2.499454996594254"/>
	</edge>
	<edge from="10" function="normal" id="265" length="14.505412891509387" numLanes="1" priority="1" speed="36.11111111111111" spreadType="center" to="1">
		<lane allow="moped bicycle pedestrian custom1 trailer evehicle rail_urban ship private truck vip custom2 authority delivery rail_electric taxi tram army hov coach motorcycle passenger bus rail emergency" index="0" length="14.505412891509387" shape="72.5958,-21.79735 78.3876,-17.40945 84.1575,-13.03755" speed="36.11111111111111" width="2.4990639387578675"/>
	</edge>
	<edge from="12" function="normal" id="266" length="9.991565089641714" numLanes="1" priority="1" speed="36.11111111111111" spreadType="center" to="19">
		<lane allow="moped bicycle pedestrian custom1 trailer evehicle rail_urban ship private vip custom2 authority delivery rail_electric taxi tram army hov coach motorcycle passenger rail emergency" index="0" length="9.991565089641714" shape="17.05035,-60.022149999999996 16.03395,-60.70785 14.999500000000001,-61.24965 13.9512,-61.60435 12.92305,-61.72165 11.93965,-61.56425 11.0221,-61.129400000000004 10.181149999999999,-60.4514 9.423649999999999,-59.587149999999994 8.74345,-58.579800000000006" speed="36.11111111111111" width="2.4994477730090687"/>
	</edge>
	<edge from="24" function="normal" id="267" length="14.957114350764805" numLanes="1" priority="1" speed="36.11111111111111" spreadType="center" to="19">
		<lane allow="moped bicycle pedestrian custom1 trailer evehicle rail_urban ship private vip custom2 authority delivery rail_electric taxi tram army hov coach motorcycle passenger rail emergency" index="0" length="14.957114350764805" shape="17.1858,-70.9182 15.89095,-69.21295 12.19095,-63.98965 8.74345,-58.579800000000006" speed="36.11111111111111" width="2.4994477730090687"/>
	</edge>
	<edge from="14" function="normal" id="268" length="14.865439194710413" numLanes="1" priority="1" speed="36.11111111111111" spreadType="center" to="9">
		<lane allow="moped bicycle pedestrian custom1 trailer evehicle rail_urban ship private truck vip custom2 authority delivery rail_electric taxi tram army hov coach motorcycle passenger bus rail emergency" index="0" length="14.865439194710413" shape="6.6414,-70.93225000000001 12.593900000000001,-66.47874999999999 18.54365,-62.0262" speed="36.11111111111111" width="2.4992386700753446"/>
	</edge>
</edges>
