<!-- generated on 2020-12-18 16:27:26.548459 by ipykernel_launcher.py v1_2_0+5214-53edc58fcd
-->
<nodes>
	<node id="1" type="from" x="84.1575" y="-13.03755"/>
	<node id="2" type="to" x="141.4553" y="31.04455"/>
	<node id="3" type="from" x="139.93085" y="33.025999999999996"/>
	<node id="4" type="to" x="82.65435" y="-11.0406"/>
	<node id="5" type="from" x="74.02340000000001" y="-9.3124"/>
	<node id="6" type="to" x="30.60455" y="145.377"/>
	<node id="7" type="from" x="28.119799999999998" y="145.10215"/>
	<node id="8" type="to" x="71.92785" y="-10.67435"/>
	<node id="9" type="from" x="18.54365" y="-62.0262"/>
	<node id="10" type="to" x="72.5958" y="-21.79735"/>
	<node id="11" type="from" x="71.0806" y="-19.809600000000003"/>
	<node id="12" type="to" x="17.05035" y="-60.022149999999996"/>
	<node id="13" type="from" x="-52.918899999999994" y="-115.75445"/>
	<node id="14" type="to" x="6.6414" y="-70.93225000000001"/>
	<node id="15" type="from" x="5.13955" y="-68.935"/>
	<node id="16" type="to" x="-54.4221" y="-113.7569"/>
	<node id="17" type="from" x="-60.68755" y="126.8549"/>
	<node id="18" type="to" x="6.6073" y="-59.87675"/>
	<node id="19" type="from" x="8.74345" y="-58.579800000000006"/>
	<node id="20" type="to" x="-58.23125" y="127.3201"/>
	<node id="21" type="from" x="15.20515" y="-72.44229999999999"/>
	<node id="22" type="to" x="36.081649999999996" y="-99.4717"/>
	<node id="23" type="from" x="38.0603" y="-97.94364999999999"/>
	<node id="24" type="to" x="17.1858" y="-70.9182"/>
</nodes>
