<?xml version="1.0" encoding="UTF-8"?>

<!-- generated on Fri Dec 18 15:43:31 2020 by Eclipse SUMO netconvert Version 1.8.0
<configuration xmlns:xsi="http://www.w3.org/2001/XMLSchema-instance" xsi:noNamespaceSchemaLocation="http://sumo.dlr.de/xsd/netconvertConfiguration.xsd">

    <input>
        <node-files value="./converted_scenarios/hand-crafted/USA_US101-13_3_I-1-1/nodes.net.xml"/>
        <edge-files value="./converted_scenarios/hand-crafted/USA_US101-13_3_I-1-1/edges.net.xml"/>
        <connection-files value="./converted_scenarios/hand-crafted/USA_US101-13_3_I-1-1/_connections.net.xml"/>
        <tllogic-files value="./converted_scenarios/hand-crafted/USA_US101-13_3_I-1-1/_tll.net.xml"/>
    </input>

    <output>
        <output-file value="./converted_scenarios/hand-crafted/USA_US101-13_3_I-1-1/USA_US101-13_3_I-1-1.net.xml"/>
    </output>

    <processing>
        <plain.extend-edge-shape value="true"/>
        <geometry.remove.keep-edges.explicit value="true"/>
        <geometry.avoid-overlap value="true"/>
        <offset.disable-normalization value="true"/>
    </processing>

    <junctions>
        <no-turnarounds value="true"/>
        <junctions.internal-link-detail value="20"/>
    </junctions>

    <report>
        <aggregate-warnings value="5"/>
    </report>

    <random_number>
        <seed value="1234"/>
    </random_number>

</configuration>
-->

<net version="1.6" junctionCornerDetail="5" junctionLinkDetail="20" limitTurnSpeed="5.50" xmlns:xsi="http://www.w3.org/2001/XMLSchema-instance" xsi:noNamespaceSchemaLocation="http://sumo.dlr.de/xsd/net_file.xsd">

    <location netOffset="0.00,0.00" convBoundary="-39.06,-118.97,136.95,30.67" origBoundary="-39.06,-125.56,142.50,35.62" projParameter="!"/>

    <edge id=":2_0" function="internal">
        <lane id=":2_0_0" index="0" disallow="bus rail_fast" speed="36.11" length="5.26" width="3.68" shape="30.34,-37.40 34.32,-40.85"/>
    </edge>
    <edge id=":2_1" function="internal">
        <lane id=":2_1_0" index="0" disallow="bus truck rail_fast" speed="36.11" length="5.25" width="3.50" shape="32.81,-34.57 36.75,-38.05"/>
        <lane id=":2_1_1" index="1" disallow="bus truck rail_fast" speed="36.11" length="5.25" width="3.22" shape="35.10,-31.94 39.00,-35.47"/>
        <lane id=":2_1_2" index="2" disallow="bus truck rail_fast" speed="36.11" length="5.25" width="3.12" shape="37.29,-29.42 41.21,-32.92"/>
        <lane id=":2_1_3" index="3" disallow="bus truck rail_fast" speed="36.11" length="5.25" width="3.27" shape="39.48,-26.90 43.46,-30.33"/>
        <lane id=":2_1_4" index="4" disallow="bus truck rail_fast" speed="36.11" length="5.25" width="3.48" shape="41.70,-24.35 45.71,-27.74"/>
    </edge>

    <edge id="16" from="2" to="3" priority="1" spreadType="center" length="132.45">
        <lane id="16_0" index="0" disallow="bus rail_fast" speed="36.11" length="132.45" width="3.68" acceleration="1" customShape="1" shape="34.32,-40.85 37.03,-43.20 37.76,-43.84 40.46,-46.22 41.18,-46.87 43.90,-49.26 44.62,-49.90 47.29,-52.22 48.01,-52.86 48.74,-53.49 50.75,-55.23 51.47,-55.88 54.15,-58.24 54.87,-58.89 57.63,-61.29 58.35,-61.93 60.92,-64.16 61.64,-64.81 64.36,-67.14 65.08,-67.78 67.93,-70.29 68.65,-70.94 71.31,-73.29 72.03,-73.94 74.85,-76.36 75.57,-77.01 78.20,-79.31 78.92,-79.96 81.63,-82.33 82.27,-82.90 82.36,-82.97 85.18,-85.36 85.90,-86.00 88.53,-88.36 89.25,-89.00 91.92,-91.32 92.64,-91.96 95.44,-94.41 96.16,-95.06 98.67,-97.22 99.39,-97.87 102.17,-100.29 102.89,-100.94 105.59,-103.20 106.31,-103.84 109.05,-106.30 109.78,-106.94 110.44,-107.51 112.51,-109.32 113.24,-109.96 115.89,-112.25 116.61,-112.89 119.31,-115.21 120.03,-115.86 124.53,-119.77 125.26,-120.41 128.13,-122.87 128.85,-123.51 131.26,-125.59"/>
        <lane id="16_1" index="1" disallow="bus truck rail_fast" speed="36.11" length="132.45" width="3.50" customShape="1" shape="36.75,-38.05 36.84,-38.13 37.48,-38.70 39.32,-40.23 39.98,-40.78 40.09,-40.88 40.68,-41.37 40.87,-41.54 42.96,-43.43 43.68,-44.10 43.77,-44.18 46.33,-46.44 47.02,-47.04 49.74,-49.41 50.41,-50.00 50.94,-50.47 53.21,-52.51 53.85,-53.09 60.01,-58.39 60.68,-58.98 60.78,-59.07 61.69,-59.84 63.42,-61.39 64.14,-62.05 64.65,-62.50 66.80,-64.34 67.46,-64.92 70.34,-67.45 71.03,-68.06 72.69,-69.53 73.80,-70.54 74.51,-71.20 75.67,-72.22 77.26,-73.58 77.91,-74.15 80.61,-76.48 81.27,-77.08 83.67,-79.15 84.08,-79.51 84.81,-80.16 86.75,-81.79 87.64,-82.54 88.31,-83.14 90.90,-85.48 91.65,-86.14 94.37,-88.51 94.52,-88.64 95.03,-89.09 97.58,-91.33 97.91,-91.61 98.62,-92.27 101.12,-94.44 101.81,-95.07 104.60,-97.53 105.32,-98.18 106.27,-98.99 108.00,-100.43 108.66,-101.02 109.12,-101.43 111.36,-103.42 112.10,-104.07 112.18,-104.14 114.92,-106.50 115.57,-107.07 115.66,-107.15 117.09,-108.37 118.33,-109.44 118.99,-110.03 119.07,-110.09 120.08,-110.97 121.76,-112.43 122.48,-113.08 126.97,-117.01 127.69,-117.65 127.77,-117.72 130.55,-120.09 130.66,-120.19 131.11,-120.59 131.22,-120.68 133.70,-122.75"/>
        <lane id="16_2" index="2" disallow="bus truck rail_fast" speed="36.11" length="132.45" width="3.22" customShape="1" shape="39.00,-35.47 39.58,-35.99 39.74,-36.12 43.11,-38.89 45.64,-41.13 45.75,-41.23 46.12,-41.57 48.74,-43.93 53.20,-47.78 56.07,-50.34 56.19,-50.44 56.82,-50.98 56.90,-51.06 59.80,-53.62 63.98,-57.17 66.83,-59.72 66.92,-59.80 67.93,-60.67 70.88,-63.32 74.99,-66.85 77.85,-69.39 77.96,-69.49 79.07,-70.44 82.03,-73.09 86.00,-76.56 88.97,-79.17 90.09,-80.17 93.07,-82.76 96.89,-86.09 99.88,-88.70 100.99,-89.68 103.96,-92.29 108.48,-96.30 111.50,-98.92 112.09,-99.44 115.09,-102.02 119.38,-105.71 122.36,-108.30 130.01,-115.02 133.04,-117.65 134.58,-118.95 135.96,-120.12"/>
        <lane id="16_3" index="3" disallow="bus rail_fast" speed="36.11" length="132.45" width="3.12" customShape="1" shape="41.21,-32.92 42.86,-34.34 45.82,-36.97 47.96,-38.77 50.79,-41.29 50.91,-41.39 53.92,-43.95 56.88,-46.59 59.02,-48.44 61.88,-51.03 61.98,-51.10 65.04,-53.76 67.99,-56.40 70.03,-58.12 72.90,-60.64 73.03,-60.75 76.16,-63.39 79.12,-66.03 81.29,-67.89 84.15,-70.46 87.40,-73.32 90.32,-75.99 92.21,-77.65 95.23,-80.27 98.46,-83.06 101.46,-85.67 103.23,-87.23 106.20,-89.85 109.40,-92.67 112.38,-95.28 114.27,-96.94 117.24,-99.56 120.64,-102.56 123.63,-105.15 131.70,-112.11 134.70,-114.72 136.67,-116.41 138.10,-117.65"/>
        <lane id="16_4" index="4" disallow="bus truck rail_fast" speed="36.11" length="132.45" width="3.27" customShape="1" shape="43.46,-30.33 44.94,-31.61 45.13,-31.78 47.80,-34.28 47.99,-34.44 56.13,-41.38 56.30,-41.53 59.08,-44.12 59.24,-44.27 67.25,-51.15 70.11,-53.81 78.36,-60.86 78.48,-60.97 81.29,-63.59 81.42,-63.71 89.57,-70.70 89.69,-70.81 92.43,-73.36 100.40,-80.28 100.68,-80.53 103.38,-82.88 103.67,-83.13 111.45,-90.00 111.58,-90.11 114.49,-92.64 114.62,-92.75 122.72,-99.99 122.80,-100.06 125.73,-102.61 133.87,-109.64 134.00,-109.76 136.86,-112.24 137.01,-112.37 140.25,-115.17"/>
        <lane id="16_5" index="5" disallow="bus truck rail_fast" speed="36.11" length="132.45" width="3.48" customShape="1" shape="45.71,-27.74 47.20,-28.99 47.43,-29.19 47.55,-29.31 50.16,-31.74 50.52,-32.05 58.59,-38.98 58.83,-39.19 58.93,-39.29 61.54,-41.72 61.91,-42.04 69.55,-48.47 69.78,-48.68 69.90,-48.79 72.51,-51.22 72.85,-51.52 80.75,-58.46 81.00,-58.69 81.08,-58.76 83.69,-61.19 84.05,-61.51 91.81,-68.09 92.05,-68.30 92.17,-68.41 94.78,-70.84 95.12,-71.15 102.64,-77.70 103.02,-78.04 105.62,-80.30 106.01,-80.63 113.78,-87.42 114.16,-87.76 116.76,-90.02 117.10,-90.32 125.04,-97.39 125.42,-97.72 128.02,-99.98 128.40,-100.32 136.26,-107.16 136.65,-107.50 139.25,-109.76 139.64,-110.10 142.50,-112.58"/>
    </edge>
    <edge id="17" from="4" to="2" priority="1" spreadType="center" length="91.07">
        <lane id="17_0" index="0" disallow="rail_fast" speed="36.11" length="91.07" width="3.64" customShape="1" shape="-39.06,19.18 -34.77,16.05 -33.36,14.98 -25.43,8.90 -19.00,3.77 -13.87,-0.41 -6.15,-6.69 -4.49,-8.06 4.06,-15.16 15.90,-24.95 16.22,-25.21 22.08,-30.20 25.54,-33.20 30.34,-37.40"/>
    </edge>
    <edge id="20" from="1" to="2" priority="1" spreadType="center" length="90.29">
        <lane id="20_0" index="0" disallow="bus truck rail_fast" speed="36.11" length="90.29" width="3.45" customShape="1" shape="-32.99,25.69 -30.30,23.13 -27.46,20.36 -19.96,13.36 -17.12,10.59 -12.58,6.35 -9.06,3.10 -6.16,0.41 1.65,-6.71 2.23,-7.25 4.60,-9.42 11.90,-16.03 12.70,-16.77 15.62,-19.48 18.68,-22.23 23.50,-26.40 26.44,-29.04 27.99,-30.38 32.81,-34.57"/>
        <lane id="20_1" index="1" disallow="bus truck rail_fast" speed="36.11" length="90.29" width="3.25" customShape="1" shape="-30.61,28.24 -30.19,27.84 -27.89,25.60 -27.39,25.10 -25.13,22.91 -19.62,17.79 -17.57,15.82 -16.83,15.08 -14.83,13.17 -8.83,7.67 -6.68,5.68 -5.92,4.97 -3.80,3.01 1.86,-2.12 4.06,-4.14 4.75,-4.78 6.93,-6.77 13.06,-12.29 15.13,-14.19 15.96,-14.96 17.99,-16.81 23.82,-21.93 25.86,-23.76 26.71,-24.56 28.70,-26.36 34.82,-31.69 35.10,-31.94"/>
        <lane id="20_2" index="2" disallow="bus truck rail_fast" speed="36.11" length="90.29" width="3.19" customShape="1" shape="-28.33,30.68 -27.89,30.27 -25.08,27.53 -23.21,25.77 -20.37,23.01 -17.38,20.23 -14.57,17.52 -12.31,15.45 -9.45,12.72 -6.58,10.13 -3.68,7.46 -1.07,5.09 1.85,2.41 4.09,0.36 7.00,-2.31 9.72,-4.77 12.65,-7.44 15.29,-9.81 18.19,-12.46 20.76,-14.75 23.69,-17.42 25.95,-19.39 28.88,-21.99 31.64,-24.37 34.58,-27.03 37.02,-29.17 37.29,-29.42"/>
        <lane id="20_3" index="3" disallow="bus rail_fast" speed="36.11" length="90.29" width="3.21" customShape="1" shape="-26.07,33.11 -20.91,28.25 -20.75,28.09 -18.05,25.40 -17.85,25.21 -10.03,17.92 -7.23,15.21 -7.05,15.05 0.94,7.79 1.21,7.55 3.82,5.11 4.08,4.87 11.79,-2.16 11.96,-2.32 14.67,-4.85 14.81,-4.97 22.82,-12.14 22.99,-12.30 25.69,-14.82 25.81,-14.93 33.85,-21.85 33.94,-21.92 36.79,-24.58 36.91,-24.69 39.48,-26.90"/>
        <lane id="20_4" index="4" disallow="rail_fast" speed="36.11" length="90.29" width="3.48" customShape="1" shape="-23.73,35.62 -18.30,30.54 -18.10,30.35 -15.45,27.70 -15.21,27.48 -7.58,20.32 -7.30,20.05 -4.69,17.62 -4.39,17.34 3.26,10.35 3.55,10.08 6.17,7.63 6.47,7.36 14.10,0.36 14.39,0.09 17.01,-2.35 17.33,-2.64 25.10,-9.58 25.40,-9.85 28.03,-12.31 28.37,-12.61 36.22,-19.47 36.51,-19.73 39.16,-22.20 39.53,-22.52 41.70,-24.35"/>
    </edge>

    <junction id="1" type="dead_end" x="-28.35" y="30.67" incLanes="" intLanes="" shape="-22.55,36.89 -34.17,24.43"/>
    <junction id="2" type="priority" x="38.41" y="-30.43" incLanes="17_0 20_0 20_1 20_2 20_3 20_4" intLanes=":2_0_0 :2_1_0 :2_1_1 :2_1_2 :2_1_3 :2_1_4" shape="46.85,-26.42 33.11,-42.24 29.15,-38.77 31.54,-36.02 31.68,-35.87 42.84,-23.04">
        <request index="0" response="000000" foes="000000" cont="0"/>
        <request index="1" response="000000" foes="000000" cont="0"/>
        <request index="2" response="000000" foes="000000" cont="0"/>
        <request index="3" response="000000" foes="000000" cont="0"/>
        <request index="4" response="000000" foes="000000" cont="0"/>
        <request index="5" response="000000" foes="000000" cont="0"/>
    </junction>
    <junction id="3" type="dead_end" x="136.95" y="-118.97" incLanes="16_0 16_1 16_2 16_3 16_4 16_5" intLanes="" shape="130.06,-126.98 143.61,-111.24"/>
    <junction id="4" type="dead_end" x="-39.06" y="19.18" incLanes="" intLanes="" shape="-37.99,20.65 -40.13,17.71"/>

    <connection from="17" to="16" fromLane="0" toLane="0" contPos="-4.00" via=":2_0_0" dir="s" state="M"/>
    <connection from="20" to="16" fromLane="0" toLane="1" contPos="-4.00" via=":2_1_0" dir="s" state="M"/>
    <connection from="20" to="16" fromLane="1" toLane="2" contPos="-4.00" via=":2_1_1" dir="s" state="M"/>
    <connection from="20" to="16" fromLane="2" toLane="3" contPos="-4.00" via=":2_1_2" dir="s" state="M"/>
    <connection from="20" to="16" fromLane="3" toLane="4" contPos="-4.00" via=":2_1_3" dir="s" state="M"/>
    <connection from="20" to="16" fromLane="4" toLane="5" contPos="-4.00" via=":2_1_4" dir="s" state="M"/>

    <connection from=":2_0" to="16" fromLane="0" toLane="0" dir="s" state="M"/>
    <connection from=":2_1" to="16" fromLane="0" toLane="1" dir="s" state="M"/>
    <connection from=":2_1" to="16" fromLane="1" toLane="2" dir="s" state="M"/>
    <connection from=":2_1" to="16" fromLane="2" toLane="3" dir="s" state="M"/>
    <connection from=":2_1" to="16" fromLane="3" toLane="4" dir="s" state="M"/>
    <connection from=":2_1" to="16" fromLane="4" toLane="5" dir="s" state="M"/>

</net>
