<routes>
	<vehicle depart="0.1" departLane="3" departPos="0" departSpeed="14.3829" id="117" type="passenger">
		<route edges="16"/>
	</vehicle>
	<vehicle depart="0.1" departLane="3" departPos="84.38177326736049" departSpeed="13.7424" id="120" type="passenger">
		<route edges="20 16"/>
	</vehicle>
	<vehicle depart="0.1" departLane="4" departPos="80.71030801586716" departSpeed="13.1708" id="121" type="passenger">
		<route edges="20 16"/>
	</vehicle>
	<vehicle depart="0.1" departLane="0" departPos="68.84248917782132" departSpeed="11.4947" id="122" type="passenger">
		<route edges="20 16"/>
	</vehicle>
	<vehicle depart="0.1" departLane="1" departPos="82.50235590276823" departSpeed="11.5224" id="124" type="passenger">
		<route edges="20 16"/>
	</vehicle>
	<vehicle depart="0.1" departLane="2" departPos="60.953080619805775" departSpeed="11.9261" id="125" type="passenger">
		<route edges="20 16"/>
	</vehicle>
	<vehicle depart="0.1" departLane="3" departPos="39.06349364449678" departSpeed="13.1675" id="127" type="passenger">
		<route edges="20 16"/>
	</vehicle>
	<vehicle depart="0.1" departLane="0" departPos="53.71214361672113" departSpeed="10.4504" id="131" type="passenger">
		<route edges="20 16"/>
	</vehicle>
	<vehicle depart="0.1" departLane="3" departPos="57.4938835151026" departSpeed="13.5357" id="132" type="passenger">
		<route edges="20 16"/>
	</vehicle>
	<vehicle depart="0.1" departLane="4" departPos="41.259053650314655" departSpeed="15.9722" id="134" type="passenger">
		<route edges="20 16"/>
	</vehicle>
	<vehicle depart="0.1" departLane="1" departPos="66.16000195447108" departSpeed="12.2029" id="135" type="passenger">
		<route edges="20 16"/>
	</vehicle>
	<vehicle depart="0.1" departLane="3" departPos="46.90570397497372" departSpeed="14.8856" id="136" type="passenger">
		<route edges="20 16"/>
	</vehicle>
	<vehicle depart="0.1" departLane="4" departPos="26.204168934834872" departSpeed="11.7714" id="137" type="passenger">
		<route edges="20 16"/>
	</vehicle>
	<vehicle depart="0.1" departLane="0" departPos="32.32140241001828" departSpeed="10.5453" id="139" type="passenger">
		<route edges="20 16"/>
	</vehicle>
	<vehicle depart="0.1" departLane="0" departPos="45.08582768214861" departSpeed="11.5549" id="140" type="passenger">
		<route edges="20 20 16"/>
	</vehicle>
	<vehicle depart="0.1" departLane="2" departPos="36.53390538965561" departSpeed="12.1955" id="142" type="passenger">
		<route edges="20 16"/>
	</vehicle>
	<vehicle depart="0.1" departLane="1" departPos="54.82418518997937" departSpeed="13.2793" id="144" type="passenger">
		<route edges="20 16"/>
	</vehicle>
</routes>
