<routes>
	<vehicle depart="0.1" departLane="0" departPos="71.26420475138828" departSpeed="0.94347704" id="36" type="passenger">
		<route edges="13269 13357"/>
	</vehicle>
	<vehicle depart="0.1" departLane="0" departPos="46.77711561881624" departSpeed="1.6062733" id="39" type="passenger">
		<route edges="13358 13272"/>
	</vehicle>
	<vehicle depart="0.1" departLane="0" departPos="53.38056219969431" departSpeed="1.0571437" id="310" type="passenger">
		<route edges="13269 13357"/>
	</vehicle>
	<vehicle depart="0.1" departLane="0" departPos="39.03452155257498" departSpeed="15.715234" id="333" type="passenger">
		<route edges=":17_3 13357"/>
	</vehicle>
	<vehicle depart="0.1" departLane="0" departPos="10.22452878608037" departSpeed="16.027887" id="335" type="passenger">
		<route edges=":17_2 13268"/>
	</vehicle>
	<vehicle depart="0.1" departLane="0" departPos="60.442543623586424" departSpeed="9.6475745" id="338" type="passenger">
		<route edges="13271 13268"/>
	</vehicle>
	<vehicle depart="0.1" departLane="0" departPos="16.565466737703083" departSpeed="11.298587" id="339" type="passenger">
		<route edges="13271 13357"/>
	</vehicle>
	<vehicle depart="0.1" departLane="0" departPos="21.187517025057186" departSpeed="1.1335428" id="30" type="truck">
		<route edges=":17_7 13357"/>
	</vehicle>
</routes>
