<!-- generated on Tue Feb  9 22:23:24 2021 by Eclipse SUMO netconvert Version 1.8.0
<configuration xmlns:xsi="http://www.w3.org/2001/XMLSchema-instance" xsi:noNamespaceSchemaLocation="http://sumo.dlr.de/xsd/netconvertConfiguration.xsd">

    <input>
        <node-files value="./converted_scenarios/scenario-factory/DEU_Guetersloh-25_3_I-1-1/DEU_Guetersloh-25_3_I-1-1.nod.xml"/>
        <edge-files value="./converted_scenarios/scenario-factory/DEU_Guetersloh-25_3_I-1-1/DEU_Guetersloh-25_3_I-1-1.edg.xml"/>
        <connection-files value="./converted_scenarios/scenario-factory/DEU_Guetersloh-25_3_I-1-1/DEU_Guetersloh-25_3_I-1-1.con.xml"/>
        <tllogic-files value="./converted_scenarios/scenario-factory/DEU_Guetersloh-25_3_I-1-1/DEU_Guetersloh-25_3_I-1-1.tll.xml"/>
        <type-files value="/home/zen/commonroad-interactive-benchmarks/install/commonroad-map-tool/crmapconverter/sumo_map/templates/DEU.typ.xml"/>
    </input>

    <output>
        <output-file value="./converted_scenarios/scenario-factory/DEU_Guetersloh-25_3_I-1-1/DEU_Guetersloh-25_3_I-1-1.net.xml"/>
    </output>

    <processing>
        <geometry.remove.keep-edges.explicit value="true"/>
        <geometry.avoid-overlap value="true"/>
        <offset.disable-normalization value="true"/>
    </processing>

    <junctions>
        <no-turnarounds value="true"/>
        <junctions.internal-link-detail value="20"/>
    </junctions>

    <report>
        <aggregate-warnings value="5"/>
    </report>

    <random_number>
        <seed value="1234"/>
    </random_number>

</configuration>
--><net xmlns:xsi="http://www.w3.org/2001/XMLSchema-instance" version="1.6" junctionCornerDetail="5" junctionLinkDetail="20" limitTurnSpeed="5.50" xsi:noNamespaceSchemaLocation="http://sumo.dlr.de/xsd/net_file.xsd">

    <location netOffset="0.00,0.00" convBoundary="46.47,-541.73,332.88,-253.34" origBoundary="46.47,-541.73,332.88,-253.34" projParameter="!"/>

    <type id="highway.bridleway" priority="1" speed="2.78" allow="pedestrian" oneway="1" width="2.00"/>
    <type id="highway.bus_guideway" priority="1" speed="27.78" allow="bus" oneway="1"/>
    <type id="highway.cycleway" priority="1" speed="8.33" allow="bicycle" oneway="0" width="1.00"/>
    <type id="highway.footway" priority="1" speed="2.78" allow="pedestrian" oneway="1" width="2.00"/>
    <type id="highway.ford" priority="1" speed="2.78" allow="army" oneway="0"/>
    <type id="highway.living_street" priority="2" speed="2.78" disallow="tram rail_urban rail rail_electric rail_fast ship" oneway="0"/>
    <type id="highway.motorway" priority="14" speed="39.44" allow="private emergency authority army vip passenger hov taxi bus coach delivery truck trailer motorcycle evehicle custom1 custom2" oneway="1"/>
    <type id="highway.motorway_link" priority="9" speed="22.22" allow="private emergency authority army vip passenger hov taxi bus coach delivery truck trailer motorcycle evehicle custom1 custom2" oneway="1"/>
    <type id="highway.path" priority="1" speed="2.78" allow="pedestrian bicycle" oneway="0" width="2.00"/>
    <type id="highway.pedestrian" priority="1" speed="2.78" allow="pedestrian" oneway="1" width="2.00"/>
    <type id="highway.primary" priority="12" speed="27.78" disallow="pedestrian tram rail_urban rail rail_electric rail_fast ship" oneway="0"/>
    <type id="highway.primary_link" priority="7" speed="22.22" disallow="pedestrian tram rail_urban rail rail_electric rail_fast ship" oneway="0"/>
    <type id="highway.raceway" priority="15" speed="83.33" allow="vip" oneway="0"/>
    <type id="highway.residential" priority="3" speed="13.89" disallow="pedestrian tram rail_urban rail rail_electric rail_fast ship" oneway="0"/>
    <type id="highway.secondary" priority="11" speed="27.78" disallow="pedestrian tram rail_urban rail rail_electric rail_fast ship" oneway="0"/>
    <type id="highway.secondary_link" priority="6" speed="22.22" disallow="pedestrian tram rail_urban rail rail_electric rail_fast ship" oneway="0"/>
    <type id="highway.service" priority="1" speed="5.56" allow="pedestrian delivery bicycle" oneway="0"/>
    <type id="highway.stairs" priority="1" speed="1.39" allow="pedestrian" oneway="1" width="2.00"/>
    <type id="highway.step" priority="1" speed="1.39" allow="pedestrian" oneway="1" width="2.00"/>
    <type id="highway.steps" priority="1" speed="1.39" allow="pedestrian" oneway="1" width="2.00"/>
    <type id="highway.tertiary" priority="10" speed="22.22" disallow="pedestrian tram rail_urban rail rail_electric rail_fast ship" oneway="0"/>
    <type id="highway.tertiary_link" priority="5" speed="22.22" disallow="pedestrian tram rail_urban rail rail_electric rail_fast ship" oneway="0"/>
    <type id="highway.track" priority="1" speed="5.56" allow="pedestrian motorcycle moped bicycle" oneway="0"/>
    <type id="highway.trunk" priority="13" speed="27.78" disallow="pedestrian bicycle tram rail_urban rail rail_electric rail_fast ship" oneway="0"/>
    <type id="highway.trunk_link" priority="8" speed="22.22" disallow="pedestrian bicycle tram rail_urban rail rail_electric rail_fast ship" oneway="0"/>
    <type id="highway.unclassified" priority="4" speed="13.89" disallow="pedestrian tram rail_urban rail rail_electric rail_fast ship" oneway="0"/>
    <type id="highway.unsurfaced" priority="1" speed="8.33" disallow="tram rail_urban rail rail_electric rail_fast ship" oneway="0"/>
    <type id="railway.highspeed" priority="21" speed="69.44" allow="rail_fast" oneway="1"/>
    <type id="railway.light_rail" priority="19" speed="27.78" allow="rail_urban" oneway="1"/>
    <type id="railway.preserved" priority="16" speed="27.78" allow="rail" oneway="1"/>
    <type id="railway.rail" priority="20" speed="44.44" allow="rail" oneway="1"/>
    <type id="railway.subway" priority="18" speed="27.78" allow="rail_urban" oneway="1"/>
    <type id="railway.tram" priority="17" speed="13.89" allow="tram" oneway="1"/>

    <edge id=":43_0" function="internal">
        <lane id=":43_0_0" index="0" disallow="pedestrian tram rail_urban rail rail_electric rail_fast ship" speed="36.11" length="3.54" width="3.50" shape="174.59,-509.15 174.79,-505.62"/>
    </edge>
    <edge id=":44_0" function="internal">
        <lane id=":44_0_0" index="0" disallow="pedestrian tram rail_urban rail rail_electric rail_fast ship" speed="36.11" length="2.97" width="3.50" shape="190.96,-492.33 193.91,-492.67"/>
    </edge>
    <edge id=":54_0" function="internal">
        <lane id=":54_0_0" index="0" disallow="pedestrian tram rail_urban rail rail_electric rail_fast ship" speed="36.11" length="2.96" width="3.50" shape="194.34,-489.20 191.40,-488.86"/>
    </edge>
    <edge id=":56_0" function="internal">
        <lane id=":56_0_0" index="0" disallow="pedestrian tram rail_urban rail rail_electric rail_fast ship" speed="36.11" length="38.28" width="3.50" shape="157.20,-312.68 154.26,-331.62 151.33,-350.51"/>
    </edge>
    <edge id=":56_1" function="internal">
        <lane id=":56_1_0" index="0" disallow="pedestrian tram rail_urban rail rail_electric rail_fast ship" speed="11.83" length="36.10" width="3.50" shape="157.20,-312.68 156.76,-316.85 156.74,-319.62 157.02,-322.38 157.30,-323.74 157.68,-325.07 158.17,-326.37 158.79,-327.61 159.53,-328.79 160.39,-329.87 161.37,-330.86 162.45,-331.73 163.61,-332.49 164.84,-333.14 166.11,-333.68 168.77,-334.49 171.50,-334.97 174.26,-335.21 177.04,-335.24"/>
    </edge>
    <edge id=":56_2" function="internal">
        <lane id=":56_2_0" index="0" disallow="pedestrian tram rail_urban rail rail_electric rail_fast ship" speed="10.80" length="29.88" width="3.50" shape="177.02,-331.74 174.56,-331.71 172.19,-331.51 169.88,-331.10 167.65,-330.43 166.64,-330.00 165.66,-329.48 164.75,-328.89 163.91,-328.21 163.15,-327.45 162.48,-326.61 161.90,-325.70 161.42,-324.72 161.03,-323.69 160.72,-322.61 160.50,-321.52 160.26,-319.19 160.27,-316.84 160.66,-313.22"/>
    </edge>
    <edge id=":56_3" function="internal">
        <lane id=":56_3_0" index="0" disallow="pedestrian tram rail_urban rail rail_electric rail_fast ship" speed="13.15" length="35.11" width="3.50" shape="177.02,-331.74 174.55,-331.85 170.93,-332.23 167.34,-332.96 164.95,-333.69 162.63,-334.65 160.41,-335.87 158.33,-337.37 156.47,-339.14 154.87,-341.15 153.56,-343.35 152.55,-345.68 151.82,-348.09 151.33,-350.51"/>
    </edge>
    <edge id=":56_4" function="internal">
        <lane id=":56_4_0" index="0" disallow="pedestrian tram rail_urban rail rail_electric rail_fast ship" speed="12.20" length="30.16" width="3.50" shape="154.79,-351.07 155.21,-348.96 155.84,-346.90 156.71,-344.93 157.83,-343.09 159.19,-341.42 160.77,-339.96 162.54,-338.72 164.44,-337.71 166.44,-336.91 168.50,-336.29 171.67,-335.66 174.89,-335.33 177.04,-335.24"/>
    </edge>
    <edge id=":56_5" function="internal">
        <lane id=":56_5_0" index="0" disallow="pedestrian tram rail_urban rail rail_electric rail_fast ship" speed="36.11" length="38.30" width="3.50" shape="154.79,-351.07 157.72,-332.16 160.66,-313.22"/>
    </edge>
    <edge id=":57_0" function="internal">
        <lane id=":57_0_0" index="0" disallow="pedestrian tram rail_urban rail rail_electric rail_fast ship" speed="10.82" length="29.45" width="3.50" shape="159.33,-441.46 157.07,-441.32 154.83,-441.00 152.63,-440.46 150.51,-439.65 149.51,-439.12 148.56,-438.51 147.67,-437.81 146.85,-437.03 146.12,-436.16 145.48,-435.22 144.94,-434.23 144.50,-433.18 144.15,-432.10 143.70,-429.89 143.53,-427.63 143.58,-425.36 143.98,-421.99"/>
    </edge>
    <edge id=":57_1" function="internal">
        <lane id=":57_1_0" index="0" disallow="pedestrian tram rail_urban rail rail_electric rail_fast ship" speed="11.68" length="28.04" width="3.50" shape="159.33,-441.46 154.23,-441.47 150.41,-441.72 146.63,-442.26 144.15,-442.86 141.75,-443.71 140.60,-444.25 139.50,-444.90 138.47,-445.65 137.54,-446.51 136.73,-447.50 136.08,-448.60 135.61,-449.78 135.31,-451.02"/>
    </edge>
    <edge id=":57_2" function="internal">
        <lane id=":57_2_0" index="0" disallow="pedestrian tram rail_urban rail rail_electric rail_fast ship" speed="10.62" length="23.08" width="3.50" shape="138.75,-451.65 138.96,-450.78 139.30,-449.99 139.79,-449.26 140.40,-448.59 141.14,-448.00 141.97,-447.48 142.87,-447.02 143.81,-446.63 145.87,-446.00 147.99,-445.55 151.32,-445.14 154.69,-444.95 159.22,-444.96"/>
    </edge>
    <edge id=":57_3" function="internal">
        <lane id=":57_3_0" index="0" disallow="pedestrian tram rail_urban rail rail_electric rail_fast ship" speed="36.11" length="30.12" width="3.50" shape="138.75,-451.65 141.37,-436.79 143.98,-421.99"/>
    </edge>
    <edge id=":57_4" function="internal">
        <lane id=":57_4_0" index="0" disallow="pedestrian tram rail_urban rail rail_electric rail_fast ship" speed="36.11" length="30.05" width="3.50" shape="140.52,-421.43 137.92,-436.20 135.31,-451.02"/>
    </edge>
    <edge id=":57_5" function="internal">
        <lane id=":57_5_0" index="0" disallow="pedestrian tram rail_urban rail rail_electric rail_fast ship" speed="11.85" length="35.53" width="3.50" shape="140.52,-421.43 140.07,-425.32 140.01,-427.99 140.22,-430.69 140.77,-433.34 141.21,-434.70 141.77,-436.00 142.45,-437.25 143.26,-438.43 144.19,-439.52 145.23,-440.51 146.35,-441.39 147.54,-442.15 148.81,-442.80 151.34,-443.77 153.97,-444.42 156.60,-444.79 159.22,-444.96"/>
    </edge>
    <edge id=":58_0" function="internal">
        <lane id=":58_0_0" index="0" disallow="pedestrian tram rail_urban rail rail_electric rail_fast ship" speed="11.15" length="28.39" width="3.50" shape="151.29,-350.79 150.63,-354.00 149.97,-356.08 149.10,-358.09 147.99,-359.97 147.33,-360.85 146.61,-361.67 145.82,-362.43 144.97,-363.11 144.06,-363.72 143.10,-364.25 142.10,-364.69 140.01,-365.34 137.86,-365.70 135.67,-365.81 133.49,-365.73 131.35,-365.48"/>
    </edge>
    <edge id=":58_1" function="internal">
        <lane id=":58_1_0" index="0" disallow="pedestrian tram rail_urban rail rail_electric rail_fast ship" speed="36.11" length="38.58" width="3.50" shape="151.29,-350.79 148.41,-369.87 145.52,-388.94"/>
    </edge>
    <edge id=":58_2" function="internal">
        <lane id=":58_2_0" index="0" disallow="pedestrian tram rail_urban rail rail_electric rail_fast ship" speed="36.11" length="38.55" width="3.50" shape="148.98,-389.47 151.87,-370.39 154.74,-351.35"/>
    </edge>
    <edge id=":58_3" function="internal">
        <lane id=":58_3_0" index="0" disallow="pedestrian tram rail_urban rail rail_electric rail_fast ship" speed="12.15" length="34.03" width="3.50" shape="148.99,-389.47 149.27,-386.94 149.37,-384.39 149.22,-381.80 148.79,-379.21 148.00,-376.70 147.45,-375.44 146.79,-374.26 146.04,-373.13 145.19,-372.07 144.25,-371.09 143.24,-370.20 142.14,-369.38 139.89,-368.05 137.50,-367.01 135.03,-366.24 131.35,-365.48"/>
    </edge>
    <edge id=":58_4" function="internal">
        <lane id=":58_4_0" index="0" disallow="pedestrian tram rail_urban rail rail_electric rail_fast ship" speed="11.15" length="28.46" width="3.50" shape="130.81,-368.93 134.01,-369.59 136.10,-370.25 138.11,-371.12 140.00,-372.24 140.87,-372.89 141.69,-373.62 142.45,-374.41 143.14,-375.26 143.75,-376.18 144.28,-377.14 144.72,-378.14 145.37,-380.23 145.74,-382.39 145.85,-384.58 145.77,-386.77 145.52,-388.94"/>
    </edge>
    <edge id=":58_5" function="internal">
        <lane id=":58_5_0" index="0" disallow="pedestrian tram rail_urban rail rail_electric rail_fast ship" speed="12.18" length="33.95" width="3.50" shape="130.81,-368.93 133.30,-369.22 135.85,-369.33 138.44,-369.19 141.02,-368.76 143.53,-367.98 144.79,-367.42 145.98,-366.77 147.10,-366.02 148.16,-365.17 149.13,-364.23 150.02,-363.22 150.84,-362.12 152.17,-359.88 153.20,-357.49 153.98,-355.02 154.74,-351.35"/>
    </edge>
    <edge id=":59_0" function="internal">
        <lane id=":59_0_0" index="0" disallow="pedestrian tram rail_urban rail rail_electric rail_fast ship" speed="9.88" length="22.20" width="3.50" shape="135.27,-451.27 135.02,-452.30 134.63,-453.28 134.08,-454.18 133.38,-454.98 132.57,-455.65 131.66,-456.20 130.70,-456.64 129.70,-456.98 128.67,-457.23 126.58,-457.54 124.46,-457.65 121.29,-457.54 118.13,-457.21 116.06,-456.90"/>
    </edge>
    <edge id=":59_1" function="internal">
        <lane id=":59_1_0" index="0" disallow="pedestrian tram rail_urban rail rail_electric rail_fast ship" speed="36.11" length="29.58" width="3.50" shape="135.27,-451.27 132.79,-465.85 130.32,-480.43"/>
    </edge>
    <edge id=":59_2" function="internal">
        <lane id=":59_2_0" index="0" disallow="pedestrian tram rail_urban rail rail_electric rail_fast ship" speed="36.11" length="29.56" width="3.50" shape="133.77,-481.02 136.25,-466.43 138.71,-451.88"/>
    </edge>
    <edge id=":59_3" function="internal">
        <lane id=":59_3_0" index="0" disallow="pedestrian tram rail_urban rail rail_electric rail_fast ship" speed="12.21" length="34.26" width="3.50" shape="133.77,-481.02 133.96,-479.74 134.21,-477.20 134.22,-474.60 133.95,-471.98 133.34,-469.41 132.88,-468.11 132.31,-466.87 131.63,-465.68 130.86,-464.56 129.98,-463.51 129.02,-462.54 128.00,-461.66 126.89,-460.85 124.62,-459.54 122.22,-458.50 119.75,-457.70 116.06,-456.90"/>
    </edge>
    <edge id=":59_4" function="internal">
        <lane id=":59_4_0" index="0" disallow="pedestrian tram rail_urban rail rail_electric rail_fast ship" speed="11.21" length="28.69" width="3.50" shape="115.46,-460.34 118.69,-461.05 120.79,-461.72 122.82,-462.59 124.73,-463.70 125.62,-464.35 126.46,-465.06 127.24,-465.85 127.95,-466.69 128.58,-467.60 129.13,-468.56 129.59,-469.56 129.97,-470.60 130.48,-472.74 130.71,-474.93 130.70,-477.14 130.49,-479.34 130.32,-480.43"/>
    </edge>
    <edge id=":59_5" function="internal">
        <lane id=":59_5_0" index="0" disallow="pedestrian tram rail_urban rail rail_electric rail_fast ship" speed="10.96" length="27.68" width="3.50" shape="115.46,-460.34 117.89,-460.70 121.57,-461.06 125.29,-461.12 127.85,-460.91 130.37,-460.41 131.67,-460.01 132.92,-459.49 134.14,-458.82 135.28,-457.99 136.31,-456.99 137.19,-455.84 137.89,-454.57 138.39,-453.23 138.71,-451.88"/>
    </edge>
    <edge id=":60_0" function="internal">
        <lane id=":60_0_0" index="0" disallow="pedestrian tram rail_urban rail rail_electric rail_fast ship" speed="36.11" length="39.16" width="3.50" shape="263.11,-444.94 248.66,-444.18 223.99,-443.31"/>
    </edge>
    <edge id=":60_1" function="internal">
        <lane id=":60_1_0" index="0" disallow="pedestrian tram rail_urban rail rail_electric rail_fast ship" speed="12.07" length="34.47" width="3.50" shape="263.11,-444.94 259.11,-444.88 256.47,-445.10 253.86,-445.59 251.34,-446.40 250.13,-446.94 248.97,-447.58 247.87,-448.31 246.83,-449.14 245.88,-450.06 245.02,-451.07 244.25,-452.15 243.57,-453.29 242.49,-455.70 241.73,-458.24 241.25,-460.84 240.93,-464.81"/>
    </edge>
    <edge id=":60_2" function="internal">
        <lane id=":60_2_0" index="0" disallow="pedestrian tram rail_urban rail rail_electric rail_fast ship" speed="11.05" length="28.75" width="3.50" shape="244.43,-464.91 244.70,-461.46 245.11,-459.26 245.75,-457.13 246.65,-455.12 247.19,-454.23 247.80,-453.36 248.49,-452.56 249.25,-451.83 250.07,-451.17 250.95,-450.59 251.89,-450.08 252.84,-449.65 254.96,-448.97 257.15,-448.57 259.39,-448.38 262.88,-448.43"/>
    </edge>
    <edge id=":60_3" function="internal">
        <lane id=":60_3_0" index="0" disallow="pedestrian tram rail_urban rail rail_electric rail_fast ship" speed="12.17" length="34.00" width="3.50" shape="244.43,-464.91 244.41,-462.37 244.19,-459.82 243.74,-457.27 242.99,-454.76 241.90,-452.37 241.19,-451.19 240.39,-450.09 239.50,-449.07 238.52,-448.13 237.47,-447.28 236.36,-446.52 235.17,-445.85 232.77,-444.81 230.28,-444.08 227.73,-443.62 223.99,-443.31"/>
    </edge>
    <edge id=":60_4" function="internal">
        <lane id=":60_4_0" index="0" disallow="pedestrian tram rail_urban rail rail_electric rail_fast ship" speed="11.16" length="28.45" width="3.50" shape="223.86,-446.81 227.13,-447.07 229.28,-447.47 231.38,-448.08 233.39,-448.95 234.34,-449.49 235.25,-450.10 236.10,-450.79 236.89,-451.55 237.60,-452.38 238.25,-453.26 238.81,-454.20 239.72,-456.19 240.35,-458.28 240.73,-460.44 240.91,-462.62 240.93,-464.81"/>
    </edge>
    <edge id=":60_5" function="internal">
        <lane id=":60_5_0" index="0" disallow="pedestrian tram rail_urban rail rail_electric rail_fast ship" speed="36.11" length="39.06" width="3.50" shape="223.86,-446.81 248.49,-447.67 262.88,-448.43"/>
    </edge>
    <edge id=":61_0" function="internal">
        <lane id=":61_0_0" index="0" disallow="pedestrian tram rail_urban rail rail_electric rail_fast ship" speed="11.12" length="29.37" width="3.50" shape="262.71,-482.68 259.03,-482.69 256.74,-482.47 254.50,-482.04 252.35,-481.33 251.38,-480.89 250.43,-480.37 249.54,-479.76 248.72,-479.08 247.97,-478.33 247.29,-477.50 246.69,-476.61 246.17,-475.66 245.74,-474.69 245.04,-472.53 244.63,-470.29 244.42,-467.99 244.41,-465.65"/>
    </edge>
    <edge id=":61_1" function="internal">
        <lane id=":61_1_0" index="0" disallow="pedestrian tram rail_urban rail rail_electric rail_fast ship" speed="13.23" length="35.91" width="3.50" shape="227.65,-493.87 230.24,-493.29 232.63,-492.36 234.86,-491.06 236.85,-489.41 238.55,-487.50 239.95,-485.41 241.09,-483.20 242.00,-480.90 243.01,-477.43 243.70,-473.90 244.13,-470.35 244.41,-465.65"/>
    </edge>
    <edge id=":61_2" function="internal">
        <lane id=":61_2_0" index="0" disallow="pedestrian tram rail_urban rail rail_electric rail_fast ship" speed="12.29" length="30.92" width="3.50" shape="240.91,-465.55 240.67,-469.82 240.30,-473.00 239.72,-476.14 238.87,-479.23 238.12,-481.23 237.19,-483.15 236.05,-484.95 234.68,-486.59 233.08,-488.00 231.27,-489.12 229.29,-489.92 227.24,-490.40"/>
    </edge>
    <edge id=":61_3" function="internal">
        <lane id=":61_3_0" index="0" disallow="pedestrian tram rail_urban rail rail_electric rail_fast ship" speed="12.16" length="35.13" width="3.50" shape="240.91,-465.55 240.93,-468.26 241.16,-470.95 241.66,-473.60 242.48,-476.17 243.03,-477.41 243.68,-478.59 244.43,-479.71 245.28,-480.76 246.23,-481.72 247.27,-482.58 248.38,-483.35 249.56,-484.00 250.79,-484.56 253.35,-485.41 256.00,-485.92 258.69,-486.18 262.76,-486.17"/>
    </edge>

    <edge id="77029" from="59" to="32" priority="3" type="highway.residential" spreadType="center" length="70.00" shape="128.66,-461.93 47.07,-445.07">
        <lane id="77029_0" index="0" disallow="pedestrian tram rail_urban rail rail_electric rail_fast ship" speed="36.11" length="70.00" width="3.50" customShape="1" shape="116.06,-456.90 71.46,-449.13 47.07,-445.07"/>
    </edge>
    <edge id="77030" from="35" to="59" priority="3" type="highway.residential" spreadType="center" length="69.99" shape="46.47,-448.53 127.95,-465.36">
        <lane id="77030_0" index="0" disallow="pedestrian tram rail_urban rail rail_electric rail_fast ship" speed="36.11" length="69.99" width="3.50" customShape="1" shape="46.47,-448.53 46.74,-448.56 70.96,-452.60 115.46,-460.34"/>
    </edge>
    <edge id="77061" from="56" to="27" priority="3" type="highway.residential" spreadType="center" length="60.05" shape="164.74,-332.57 169.97,-253.90">
        <lane id="77061_0" index="0" disallow="pedestrian tram rail_urban rail rail_electric rail_fast ship" speed="36.11" length="60.05" width="3.50" customShape="1" shape="160.66,-313.22 165.31,-283.56 169.97,-253.90"/>
    </edge>
    <edge id="77062" from="38" to="56" priority="3" type="highway.residential" spreadType="center" length="60.10" shape="166.52,-253.34 161.25,-332.34">
        <lane id="77062_0" index="0" disallow="pedestrian tram rail_urban rail rail_electric rail_fast ship" speed="36.11" length="60.10" width="3.50" customShape="1" shape="166.52,-253.34 161.86,-283.02 157.19,-312.71"/>
    </edge>
    <edge id="77064" from="58" to="56" priority="3" type="highway.residential" spreadType="center" length="0.30" shape="145.30,-370.03 164.55,-333.23">
        <lane id="77064_0" index="0" disallow="pedestrian tram rail_urban rail rail_electric rail_fast ship" speed="36.11" length="0.30" width="3.50" customShape="1" shape="154.74,-351.35 154.77,-351.19 154.79,-351.05"/>
    </edge>
    <edge id="77065" from="56" to="58" priority="3" type="highway.residential" spreadType="center" length="0.29" shape="161.45,-331.60 142.20,-368.41">
        <lane id="77065_0" index="0" disallow="pedestrian tram rail_urban rail rail_electric rail_fast ship" speed="36.11" length="0.29" width="3.50" customShape="1" shape="151.33,-350.51 151.31,-350.66 151.29,-350.80"/>
    </edge>
    <edge id="77067" from="57" to="58" priority="3" type="highway.residential" spreadType="center" length="32.93" shape="147.93,-438.69 145.53,-369.05">
        <lane id="77067_0" index="0" disallow="pedestrian tram rail_urban rail rail_electric rail_fast ship" speed="36.11" length="32.93" width="3.50" customShape="1" shape="143.98,-421.99 144.71,-417.49 148.99,-389.44"/>
    </edge>
    <edge id="77068" from="58" to="57" priority="3" type="highway.residential" spreadType="center" length="32.88" shape="142.03,-369.17 144.44,-438.81">
        <lane id="77068_0" index="0" disallow="pedestrian tram rail_urban rail rail_electric rail_fast ship" speed="36.11" length="32.88" width="3.50" customShape="1" shape="145.52,-388.94 141.25,-416.94 140.52,-421.44"/>
    </edge>
    <edge id="77070" from="59" to="57" priority="3" type="highway.residential" spreadType="center" length="0.29" shape="129.63,-464.74 147.60,-439.78">
        <lane id="77070_0" index="0" disallow="pedestrian tram rail_urban rail rail_electric rail_fast ship" speed="36.11" length="0.29" width="3.50" customShape="1" shape="138.71,-451.88 138.76,-451.59"/>
    </edge>
    <edge id="77071" from="57" to="59" priority="3" type="highway.residential" spreadType="center" length="0.30" shape="144.77,-437.73 126.79,-462.70">
        <lane id="77071_0" index="0" disallow="pedestrian tram rail_urban rail rail_electric rail_fast ship" speed="36.11" length="0.30" width="3.50" customShape="1" shape="135.31,-451.02 135.29,-451.14 135.26,-451.32"/>
    </edge>
    <edge id="77073" from="37" to="59" priority="3" type="highway.residential" spreadType="center" length="61.60" shape="123.39,-541.73 130.01,-463.75">
        <lane id="77073_0" index="0" disallow="pedestrian tram rail_urban rail rail_electric rail_fast ship" speed="36.11" length="61.60" width="3.50" customShape="1" shape="123.39,-541.73 128.58,-511.36 133.77,-481.01"/>
    </edge>
    <edge id="77074" from="59" to="31" priority="3" type="highway.residential" spreadType="center" length="61.56" shape="126.53,-463.45 119.94,-541.11">
        <lane id="77074_0" index="0" disallow="pedestrian tram rail_urban rail rail_electric rail_fast ship" speed="36.11" length="61.56" width="3.50" customShape="1" shape="130.32,-480.43 125.13,-510.77 119.94,-541.11"/>
    </edge>
    <edge id="77235" from="17" to="58" priority="3" type="highway.residential" spreadType="center" length="70.00" shape="61.60,-358.49 143.56,-370.89">
        <lane id="77235_0" index="0" disallow="pedestrian tram rail_urban rail rail_electric rail_fast ship" speed="36.11" length="70.00" width="3.50" customShape="1" shape="61.60,-358.49 130.82,-368.94"/>
    </edge>
    <edge id="77236" from="58" to="5" priority="3" type="highway.residential" spreadType="center" length="70.00" shape="144.08,-367.43 62.13,-355.03">
        <lane id="77236_0" index="0" disallow="pedestrian tram rail_urban rail rail_electric rail_fast ship" speed="36.11" length="70.00" width="3.50" customShape="1" shape="131.35,-365.48 62.13,-355.03"/>
    </edge>
    <edge id="77298" from="60" to="41" priority="3" type="highway.residential" spreadType="center" length="70.01" shape="243.30,-453.95 332.69,-446.93">
        <lane id="77298_0" index="0" disallow="pedestrian tram rail_urban rail rail_electric rail_fast ship" speed="36.11" length="70.01" width="3.50" customShape="1" shape="262.88,-448.43 265.88,-448.62 278.49,-449.25 287.58,-449.36 295.66,-449.10 298.67,-448.84 303.64,-447.93 307.62,-447.23 312.66,-446.90 321.24,-446.70 331.34,-446.87 332.69,-446.93"/>
    </edge>
    <edge id="77299" from="52" to="60" priority="3" type="highway.residential" spreadType="center" length="70.01" shape="332.88,-443.44 243.02,-450.46">
        <lane id="77299_0" index="0" disallow="pedestrian tram rail_urban rail rail_electric rail_fast ship" speed="36.11" length="70.01" width="3.50" customShape="1" shape="332.88,-443.44 331.50,-443.37 321.34,-443.20 312.69,-443.40 307.53,-443.73 303.42,-444.40 298.53,-445.33 295.66,-445.60 287.67,-445.86 278.65,-445.76 266.09,-445.13 263.07,-444.94"/>
    </edge>
    <edge id="77301" from="57" to="60" priority="3" type="highway.residential" spreadType="center" length="64.70" shape="145.94,-440.49 242.99,-453.94">
        <lane id="77301_0" index="0" disallow="pedestrian tram rail_urban rail rail_electric rail_fast ship" speed="36.11" length="64.70" width="3.50" customShape="1" shape="159.22,-444.96 191.54,-445.88 223.89,-446.81"/>
    </edge>
    <edge id="77302" from="60" to="57" priority="3" type="highway.residential" spreadType="center" length="64.70" shape="243.47,-450.47 146.43,-437.02">
        <lane id="77302_0" index="0" disallow="pedestrian tram rail_urban rail rail_electric rail_fast ship" speed="36.11" length="64.70" width="3.50" customShape="1" shape="223.99,-443.31 191.64,-442.39 159.32,-441.46"/>
    </edge>
    <edge id="77304" from="61" to="49" priority="3" type="highway.residential" spreadType="center" length="29.82" shape="243.83,-482.40 290.09,-493.28">
        <lane id="77304_0" index="0" disallow="pedestrian tram rail_urban rail rail_electric rail_fast ship" speed="36.11" length="29.82" width="3.50" customShape="1" shape="262.76,-486.17 267.37,-486.10 270.97,-486.36 274.01,-486.88 276.98,-487.74 279.82,-488.96 280.21,-489.28 280.47,-489.72 281.19,-491.09 281.80,-491.92 282.56,-492.61 283.47,-493.09 284.45,-493.40 284.96,-493.49 285.98,-493.57 287.52,-493.48 290.09,-493.28"/>
    </edge>
    <edge id="77305" from="53" to="61" priority="3" type="highway.residential" spreadType="center" length="29.94" shape="289.99,-489.79 244.60,-479.17">
        <lane id="77305_0" index="0" disallow="pedestrian tram rail_urban rail rail_electric rail_fast ship" speed="36.11" length="29.94" width="3.16" customShape="1" shape="289.99,-489.79 287.41,-489.97 286.06,-490.08 285.39,-490.04 285.37,-490.22 284.75,-489.73 284.15,-489.01 283.56,-488.22 282.82,-487.43 281.79,-486.43 281.38,-486.06 280.71,-485.55 277.52,-484.24 274.35,-483.38 271.12,-482.86 267.35,-482.60 262.61,-482.68"/>
    </edge>
    <edge id="77314" from="44" to="61" priority="3" type="highway.residential" spreadType="center" length="33.89" shape="192.44,-492.48 244.68,-482.42">
        <lane id="77314_0" index="0" disallow="pedestrian tram rail_urban rail rail_electric rail_fast ship" speed="36.11" length="33.89" width="3.50" customShape="1" shape="193.91,-492.67 204.66,-494.03 211.85,-494.59 217.51,-494.70 222.65,-494.47 227.65,-493.87"/>
    </edge>
    <edge id="77315" from="61" to="54" priority="3" type="highway.residential" spreadType="center" length="33.05" shape="244.01,-478.99 192.87,-489.01">
        <lane id="77315_0" index="0" disallow="pedestrian tram rail_urban rail rail_electric rail_fast ship" speed="36.11" length="33.05" width="3.50" customShape="1" shape="227.24,-490.40 222.31,-490.98 217.36,-491.20 211.89,-491.09 204.90,-490.54 194.34,-489.20"/>
    </edge>
    <edge id="77317" from="47" to="43" priority="3" type="highway.residential" spreadType="center" length="3.47">
        <lane id="77317_0" index="0" disallow="pedestrian tram rail_urban rail rail_electric rail_fast ship" speed="36.11" length="3.47" width="3.50" customShape="1" shape="174.47,-512.62 174.59,-509.15"/>
    </edge>