<routes>
	<vehicle depart="0.1" departLane="0" departPos="4.589331628447608" departSpeed="0.083953841" id="310" type="bicycle">
		<route edges=":57_5 77301"/>
	</vehicle>
	<vehicle depart="0.1" departLane="0" departPos="54.5988874925155" departSpeed="0.0" id="329" type="passenger">
		<route edges="77302 77071"/>
	</vehicle>
	<vehicle depart="0.1" departLane="0" departPos="40.29021442432607" departSpeed="4.7407594" id="344" type="passenger">
		<route edges=":58_1 77068 77071"/>
	</vehicle>
	<vehicle depart="0.1" departLane="0" departPos="13.025313237851226" departSpeed="3.2929191" id="357" type="passenger">
		<route edges=":58_1 77068"/>
	</vehicle>
	<vehicle depart="0.1" departLane="0" departPos="15.70914314815646" departSpeed="11.87433" id="372" type="passenger">
		<route edges=":57_3 77067 77236"/>
	</vehicle>
	<vehicle depart="0.1" departLane="0" departPos="8.547746321830516" departSpeed="9.8668469" id="378" type="passenger">
		<route edges=":59_5 77070"/>
	</vehicle>
	<vehicle depart="0.1" departLane="0" departPos="60.842766179666135" departSpeed="8.4698507" id="381" type="passenger">
		<route edges="77030 77070"/>
	</vehicle>
	<vehicle depart="0.1" departLane="0" departPos="47.94768028281265" departSpeed="6.1034364" id="385" type="passenger">
		<route edges="77030 77070"/>
	</vehicle>
	<vehicle depart="0.1" departLane="0" departPos="61.60036133948387" departSpeed="0.0" id="30" type="truck">
		<route edges="77073 77029"/>
	</vehicle>
	<vehicle depart="0.1" departLane="0" departPos="64.59934745553687" departSpeed="0.0" id="323" type="truck">
		<route edges="77302 77071"/>
	</vehicle>
</routes>
