<!-- generated on Tue Feb  9 22:24:02 2021 by Eclipse SUMO netconvert Version 1.8.0
<configuration xmlns:xsi="http://www.w3.org/2001/XMLSchema-instance" xsi:noNamespaceSchemaLocation="http://sumo.dlr.de/xsd/netconvertConfiguration.xsd">

    <input>
        <node-files value="./converted_scenarios/scenario-factory/BEL_Putte-4_2_I-1-1/BEL_Putte-4_2_I-1-1.nod.xml"/>
        <edge-files value="./converted_scenarios/scenario-factory/BEL_Putte-4_2_I-1-1/BEL_Putte-4_2_I-1-1.edg.xml"/>
        <connection-files value="./converted_scenarios/scenario-factory/BEL_Putte-4_2_I-1-1/BEL_Putte-4_2_I-1-1.con.xml"/>
        <tllogic-files value="./converted_scenarios/scenario-factory/BEL_Putte-4_2_I-1-1/BEL_Putte-4_2_I-1-1.tll.xml"/>
        <type-files value="/home/zen/commonroad-interactive-benchmarks/install/commonroad-map-tool/crmapconverter/sumo_map/templates/DEU.typ.xml"/>
    </input>

    <output>
        <output-file value="./converted_scenarios/scenario-factory/BEL_Putte-4_2_I-1-1/BEL_Putte-4_2_I-1-1.net.xml"/>
    </output>

    <processing>
        <geometry.remove.keep-edges.explicit value="true"/>
        <geometry.avoid-overlap value="true"/>
        <offset.disable-normalization value="true"/>
    </processing>

    <junctions>
        <no-turnarounds value="true"/>
        <junctions.internal-link-detail value="20"/>
    </junctions>

    <report>
        <aggregate-warnings value="5"/>
    </report>

    <random_number>
        <seed value="1234"/>
    </random_number>

</configuration>
--><net xmlns:xsi="http://www.w3.org/2001/XMLSchema-instance" version="1.6" junctionCornerDetail="5" junctionLinkDetail="20" limitTurnSpeed="5.50" xsi:noNamespaceSchemaLocation="http://sumo.dlr.de/xsd/net_file.xsd">

    <location netOffset="0.00,0.00" convBoundary="-881.45,-895.34,-660.55,-739.50" origBoundary="-881.45,-895.34,-645.18,-726.53" projParameter="!"/>

    <type id="highway.bridleway" priority="1" speed="2.78" allow="pedestrian" oneway="1" width="2.00"/>
    <type id="highway.bus_guideway" priority="1" speed="27.78" allow="bus" oneway="1"/>
    <type id="highway.cycleway" priority="1" speed="8.33" allow="bicycle" oneway="0" width="1.00"/>
    <type id="highway.footway" priority="1" speed="2.78" allow="pedestrian" oneway="1" width="2.00"/>
    <type id="highway.ford" priority="1" speed="2.78" allow="army" oneway="0"/>
    <type id="highway.living_street" priority="2" speed="2.78" disallow="tram rail_urban rail rail_electric rail_fast ship" oneway="0"/>
    <type id="highway.motorway" priority="14" speed="39.44" allow="private emergency authority army vip passenger hov taxi bus coach delivery truck trailer motorcycle evehicle custom1 custom2" oneway="1"/>
    <type id="highway.motorway_link" priority="9" speed="22.22" allow="private emergency authority army vip passenger hov taxi bus coach delivery truck trailer motorcycle evehicle custom1 custom2" oneway="1"/>
    <type id="highway.path" priority="1" speed="2.78" allow="pedestrian bicycle" oneway="0" width="2.00"/>
    <type id="highway.pedestrian" priority="1" speed="2.78" allow="pedestrian" oneway="1" width="2.00"/>
    <type id="highway.primary" priority="12" speed="27.78" disallow="pedestrian tram rail_urban rail rail_electric rail_fast ship" oneway="0"/>
    <type id="highway.primary_link" priority="7" speed="22.22" disallow="pedestrian tram rail_urban rail rail_electric rail_fast ship" oneway="0"/>
    <type id="highway.raceway" priority="15" speed="83.33" allow="vip" oneway="0"/>
    <type id="highway.residential" priority="3" speed="13.89" disallow="pedestrian tram rail_urban rail rail_electric rail_fast ship" oneway="0"/>
    <type id="highway.secondary" priority="11" speed="27.78" disallow="pedestrian tram rail_urban rail rail_electric rail_fast ship" oneway="0"/>
    <type id="highway.secondary_link" priority="6" speed="22.22" disallow="pedestrian tram rail_urban rail rail_electric rail_fast ship" oneway="0"/>
    <type id="highway.service" priority="1" speed="5.56" allow="pedestrian delivery bicycle" oneway="0"/>
    <type id="highway.stairs" priority="1" speed="1.39" allow="pedestrian" oneway="1" width="2.00"/>
    <type id="highway.step" priority="1" speed="1.39" allow="pedestrian" oneway="1" width="2.00"/>
    <type id="highway.steps" priority="1" speed="1.39" allow="pedestrian" oneway="1" width="2.00"/>
    <type id="highway.tertiary" priority="10" speed="22.22" disallow="pedestrian tram rail_urban rail rail_electric rail_fast ship" oneway="0"/>
    <type id="highway.tertiary_link" priority="5" speed="22.22" disallow="pedestrian tram rail_urban rail rail_electric rail_fast ship" oneway="0"/>
    <type id="highway.track" priority="1" speed="5.56" allow="pedestrian motorcycle moped bicycle" oneway="0"/>
    <type id="highway.trunk" priority="13" speed="27.78" disallow="pedestrian bicycle tram rail_urban rail rail_electric rail_fast ship" oneway="0"/>
    <type id="highway.trunk_link" priority="8" speed="22.22" disallow="pedestrian bicycle tram rail_urban rail rail_electric rail_fast ship" oneway="0"/>
    <type id="highway.unclassified" priority="4" speed="13.89" disallow="pedestrian tram rail_urban rail rail_electric rail_fast ship" oneway="0"/>
    <type id="highway.unsurfaced" priority="1" speed="8.33" disallow="tram rail_urban rail rail_electric rail_fast ship" oneway="0"/>
    <type id="railway.highspeed" priority="21" speed="69.44" allow="rail_fast" oneway="1"/>
    <type id="railway.light_rail" priority="19" speed="27.78" allow="rail_urban" oneway="1"/>
    <type id="railway.preserved" priority="16" speed="27.78" allow="rail" oneway="1"/>
    <type id="railway.rail" priority="20" speed="44.44" allow="rail" oneway="1"/>
    <type id="railway.subway" priority="18" speed="27.78" allow="rail_urban" oneway="1"/>
    <type id="railway.tram" priority="17" speed="13.89" allow="tram" oneway="1"/>

    <edge id=":20_0" function="internal">
        <lane id=":20_0_0" index="0" disallow="pedestrian tram rail_urban rail rail_electric rail_fast ship" speed="36.11" length="7.36" width="3.50" shape="-747.61,-821.96 -743.20,-816.07"/>
    </edge>
    <edge id=":29_0" function="internal">
        <lane id=":29_0_0" index="0" disallow="pedestrian tram rail_urban rail rail_electric rail_fast ship" speed="36.11" length="7.95" width="3.50" shape="-736.74,-834.39 -730.75,-829.16"/>
    </edge>
    <edge id=":38_0" function="internal">
        <lane id=":38_0_0" index="0" disallow="pedestrian tram rail_urban rail rail_electric rail_fast ship" speed="36.11" length="7.95" width="3.49" shape="-733.10,-826.56 -739.08,-831.80"/>
    </edge>
    <edge id=":39_0" function="internal">
        <lane id=":39_0_0" index="0" disallow="pedestrian tram rail_urban rail rail_electric rail_fast ship" speed="36.11" length="7.56" width="3.50" shape="-745.90,-813.85 -750.43,-819.90"/>
    </edge>
    <edge id=":41_0" function="internal">
        <lane id=":41_0_0" index="0" disallow="pedestrian tram rail_urban rail rail_electric rail_fast ship" speed="10.65" length="30.13" width="3.50" shape="-775.90,-750.57 -777.40,-752.50 -779.02,-754.31 -780.75,-755.94 -782.64,-757.36 -783.60,-757.94 -784.61,-758.43 -785.64,-758.83 -786.69,-759.12 -787.76,-759.28 -788.83,-759.32 -789.91,-759.24 -790.98,-759.04 -792.04,-758.72 -793.08,-758.29 -794.09,-757.78 -795.06,-757.19 -796.98,-755.78 -798.76,-754.17 -800.46,-752.37"/>
    </edge>
    <edge id=":41_1" function="internal">
        <lane id=":41_1_0" index="0" disallow="pedestrian tram rail_urban rail rail_electric rail_fast ship" speed="12.85" length="30.03" width="3.50" shape="-775.90,-750.57 -777.92,-753.59 -779.65,-756.80 -780.61,-759.10 -781.34,-761.49 -781.80,-763.98 -781.94,-766.52 -781.72,-769.08 -781.14,-771.57 -780.22,-773.95 -779.02,-776.18 -777.60,-778.21"/>
    </edge>
    <edge id=":41_2" function="internal">
        <lane id=":41_2_0" index="0" disallow="pedestrian tram rail_urban rail rail_electric rail_fast ship" speed="11.83" length="25.50" width="3.50" shape="-774.83,-776.07 -776.04,-774.33 -777.05,-772.46 -777.80,-770.47 -778.26,-768.40 -778.41,-766.28 -778.27,-764.16 -777.85,-762.07 -777.21,-760.05 -776.38,-758.09 -774.86,-755.29 -773.08,-752.64"/>
    </edge>
    <edge id=":41_3" function="internal">
        <lane id=":41_3_0" index="0" disallow="pedestrian tram rail_urban rail rail_electric rail_fast ship" speed="36.11" length="34.97" width="3.50" shape="-774.83,-776.07 -776.22,-774.37 -779.18,-771.19 -783.15,-767.54 -793.77,-758.84 -797.61,-755.36 -800.46,-752.37"/>
    </edge>
    <edge id=":41_4" function="internal">
        <lane id=":41_4_0" index="0" disallow="pedestrian tram rail_urban rail rail_electric rail_fast ship" speed="36.11" length="34.77" width="3.50" shape="-803.10,-754.67 -800.14,-757.77 -796.24,-761.30 -785.65,-769.96 -781.78,-773.52 -778.91,-776.61 -777.60,-778.21"/>
    </edge>
    <edge id=":41_5" function="internal">
        <lane id=":41_5_0" index="0" disallow="pedestrian tram rail_urban rail rail_electric rail_fast ship" speed="11.69" length="36.59" width="3.50" shape="-803.10,-754.67 -801.12,-756.77 -799.04,-758.65 -796.78,-760.32 -795.58,-761.05 -794.33,-761.69 -793.03,-762.22 -791.68,-762.63 -790.30,-762.90 -788.90,-763.01 -787.50,-762.97 -786.11,-762.76 -784.76,-762.39 -783.44,-761.90 -782.18,-761.28 -780.97,-760.56 -778.73,-758.87 -776.68,-756.95 -774.81,-754.86 -773.08,-752.64"/>
    </edge>
    <edge id=":42_0" function="internal">
        <lane id=":42_0_0" index="0" disallow="pedestrian tram rail_urban rail rail_electric rail_fast ship" speed="11.06" length="28.42" width="3.50" shape="-792.58,-865.83 -793.17,-869.03 -793.77,-871.14 -794.57,-873.17 -795.62,-875.09 -796.24,-876.00 -796.93,-876.85 -797.68,-877.64 -798.51,-878.36 -799.39,-879.01 -800.32,-879.57 -801.30,-880.06 -802.32,-880.46 -804.43,-881.03 -806.60,-881.33 -808.79,-881.39 -812.06,-881.13"/>
    </edge>
    <edge id=":42_1" function="internal">
        <lane id=":42_1_0" index="0" disallow="pedestrian tram rail_urban rail rail_electric rail_fast ship" speed="12.23" length="34.19" width="3.50" shape="-792.58,-865.83 -792.83,-868.34 -792.88,-870.90 -792.71,-873.50 -792.24,-876.09 -791.44,-878.61 -790.88,-879.87 -790.22,-881.06 -789.46,-882.19 -788.60,-883.26 -787.66,-884.24 -786.64,-885.13 -785.53,-885.96 -783.26,-887.29 -780.85,-888.32 -778.35,-889.08 -774.63,-889.81"/>
    </edge>
    <edge id=":42_2" function="internal">
        <lane id=":42_2_0" index="0" disallow="pedestrian tram rail_urban rail rail_electric rail_fast ship" speed="11.23" length="28.67" width="3.50" shape="-774.12,-886.35 -777.37,-885.71 -779.48,-885.07 -781.51,-884.20 -783.41,-883.08 -784.30,-882.42 -785.12,-881.69 -785.89,-880.89 -786.58,-880.03 -787.19,-879.11 -787.72,-878.15 -788.17,-877.14 -788.84,-875.04 -789.23,-872.86 -789.38,-870.66 -789.32,-868.45 -789.11,-866.28"/>
    </edge>
    <edge id=":42_3" function="internal">
        <lane id=":42_3_0" index="0" disallow="pedestrian tram rail_urban rail rail_electric rail_fast ship" speed="12.07" length="34.03" width="3.50" shape="-812.54,-884.60 -808.74,-884.90 -806.15,-884.83 -803.56,-884.48 -801.03,-883.79 -799.75,-883.29 -798.54,-882.70 -797.38,-882.00 -796.28,-881.20 -795.26,-880.30 -794.32,-879.33 -793.48,-878.29 -792.70,-877.16 -791.46,-874.87 -790.50,-872.46 -789.79,-869.98 -789.11,-866.28"/>
    </edge>
    <edge id=":43_0" function="internal">
        <lane id=":43_0_0" index="0" disallow="pedestrian tram rail_urban rail rail_electric rail_fast ship" speed="11.95" length="30.80" width="3.50" shape="-747.56,-780.03 -749.51,-781.19 -752.57,-782.70 -754.65,-783.47 -756.78,-784.05 -758.92,-784.37 -761.07,-784.42 -763.19,-784.18 -765.25,-783.62 -767.22,-782.78 -769.08,-781.67 -770.83,-780.34 -772.44,-778.83 -774.68,-776.27"/>
    </edge>
    <edge id=":43_1" function="internal">
        <lane id=":43_1_0" index="0" disallow="pedestrian tram rail_urban rail rail_electric rail_fast ship" speed="36.11" length="35.08" width="3.50" shape="-747.56,-780.03 -751.04,-782.29 -758.66,-787.59 -766.89,-793.82 -775.67,-800.98"/>
    </edge>
    <edge id=":43_2" function="internal">
        <lane id=":43_2_0" index="0" disallow="pedestrian tram rail_urban rail rail_electric rail_fast ship" speed="36.11" length="34.56" width="3.50" shape="-773.38,-803.63 -764.73,-796.58 -756.62,-790.44 -749.10,-785.21 -745.69,-782.99"/>
    </edge>
    <edge id=":43_3" function="internal">
        <lane id=":43_3_0" index="0" disallow="pedestrian tram rail_urban rail rail_electric rail_fast ship" speed="11.90" length="30.87" width="3.50" shape="-773.38,-803.63 -771.55,-801.86 -769.96,-799.81 -769.26,-798.62 -768.70,-797.40 -768.26,-796.12 -767.95,-794.80 -767.77,-793.46 -767.73,-792.13 -767.80,-790.80 -767.99,-789.47 -768.60,-787.00 -769.50,-784.63 -770.61,-782.38 -772.52,-779.23 -774.68,-776.27"/>
    </edge>
    <edge id=":43_4" function="internal">
        <lane id=":43_4_0" index="0" disallow="pedestrian tram rail_urban rail rail_electric rail_fast ship" speed="10.81" length="25.52" width="3.50" shape="-777.45,-778.39 -775.55,-781.00 -773.87,-783.71 -772.92,-785.61 -772.13,-787.58 -771.57,-789.63 -771.40,-790.68 -771.31,-791.73 -771.31,-792.79 -771.41,-793.85 -771.62,-794.89 -771.94,-795.90 -772.36,-796.88 -772.87,-797.81 -774.14,-799.50 -775.67,-800.98"/>
    </edge>
    <edge id=":43_5" function="internal">
        <lane id=":43_5_0" index="0" disallow="pedestrian tram rail_urban rail rail_electric rail_fast ship" speed="12.94" length="36.05" width="3.50" shape="-777.46,-778.39 -774.89,-781.34 -773.01,-783.10 -770.97,-784.66 -768.76,-785.98 -766.40,-787.00 -763.92,-787.68 -761.37,-787.99 -758.80,-787.93 -756.26,-787.56 -753.77,-786.90 -751.36,-786.00 -747.90,-784.30 -745.69,-782.99"/>
    </edge>
    <edge id=":44_0" function="internal">
        <lane id=":44_0_0" index="0" disallow="pedestrian tram rail_urban rail rail_electric rail_fast ship" speed="31.35" length="41.93" width="3.50" shape="-676.91,-801.93 -679.07,-799.53 -682.74,-795.80 -686.63,-792.29 -690.71,-789.01 -694.98,-785.97 -699.41,-783.17 -704.90,-780.14 -710.54,-777.46"/>
    </edge>
    <edge id=":44_1" function="internal">
        <lane id=":44_1_0" index="0" disallow="pedestrian tram rail_urban rail rail_electric rail_fast ship" speed="13.15" length="36.90" width="3.50" shape="-676.91,-801.93 -678.74,-800.06 -680.75,-798.51 -681.84,-797.85 -682.98,-797.29 -684.16,-796.83 -685.38,-796.47 -686.63,-796.21 -689.16,-796.01 -691.69,-796.18 -694.19,-796.65 -696.63,-797.37 -700.15,-798.82 -703.53,-800.59 -706.77,-802.60 -709.88,-804.77"/>
    </edge>
    <edge id=":44_2" function="internal">
        <lane id=":44_2_0" index="0" disallow="pedestrian tram rail_urban rail rail_electric rail_fast ship" speed="12.21" length="31.73" width="3.50" shape="-707.90,-807.66 -704.99,-805.62 -702.08,-803.80 -699.08,-802.20 -695.97,-800.88 -693.88,-800.22 -691.76,-799.77 -689.64,-799.57 -687.51,-799.68 -686.53,-799.85 -685.54,-800.11 -684.58,-800.46 -683.65,-800.89 -682.79,-801.38 -681.09,-802.65 -679.58,-804.20"/>
    </edge>
    <edge id=":44_3" function="internal">
        <lane id=":44_3_0" index="0" disallow="pedestrian tram rail_urban rail rail_electric rail_fast ship" speed="11.13" length="41.26" width="3.50" shape="-707.90,-807.66 -704.33,-804.81 -702.11,-802.74 -700.09,-800.46 -699.14,-799.18 -698.29,-797.83 -697.57,-796.37 -697.01,-794.79 -696.68,-793.11 -696.63,-791.37 -696.89,-789.63 -697.44,-787.99 -698.24,-786.48 -699.20,-785.14 -700.28,-783.93 -701.47,-782.84 -703.92,-781.00 -706.54,-779.42 -710.54,-777.46"/>
    </edge>
    <edge id=":44_4" function="internal">
        <lane id=":44_4_0" index="0" disallow="pedestrian tram rail_urban rail rail_electric rail_fast ship" speed="10.02" length="33.15" width="3.50" shape="-711.81,-780.73 -708.51,-782.35 -706.31,-783.67 -704.26,-785.22 -703.32,-786.09 -702.47,-787.05 -701.72,-788.09 -701.13,-789.23 -700.73,-790.44 -700.54,-791.71 -700.59,-792.99 -700.85,-794.25 -701.28,-795.45 -701.86,-796.60 -702.54,-797.69 -703.30,-798.72 -705.01,-800.63 -706.89,-802.38 -709.88,-804.77"/>
    </edge>
    <edge id=":44_5" function="internal">
        <lane id=":44_5_0" index="0" disallow="pedestrian tram rail_urban rail rail_electric rail_fast ship" speed="30.65" length="40.20" width="3.50" shape="-711.81,-780.73 -706.50,-783.25 -701.21,-786.17 -696.95,-788.87 -692.84,-791.79 -688.91,-794.95 -685.16,-798.32 -681.63,-801.92 -679.58,-804.20"/>
    </edge>

    <edge id="7994" from="44" to="25" priority="3" type="highway.residential" spreadType="center" length="70.00" shape="-700.96,-796.99 -666.33,-851.53">
        <lane id="7994_0" index="0" disallow="pedestrian tram rail_urban rail rail_electric rail_fast ship" speed="36.11" length="70.00" width="3.50" customShape="1" shape="-679.58,-804.20 -677.07,-807.15 -673.84,-810.83 -667.58,-817.04 -665.07,-819.37 -663.18,-820.92 -661.99,-821.79 -660.35,-822.86 -659.08,-823.59 -657.73,-824.16 -656.29,-824.46 -654.87,-824.81 -654.01,-825.29 -652.83,-826.16 -651.71,-827.12 -650.31,-828.47 -649.57,-829.74 -649.07,-831.12 -648.71,-832.55 -648.55,-834.00 -648.71,-834.97 -649.11,-835.86 -649.92,-837.08 -650.95,-838.13 -652.17,-838.94 -654.82,-840.20 -656.04,-841.01 -657.95,-842.55 -660.08,-844.57 -664.35,-849.29 -666.33,-851.53"/>
    </edge>
    <edge id="7995" from="31" to="44" priority="3" type="highway.residential" spreadType="center" length="70.00" shape="-660.55,-850.31 -698.04,-795.07">
        <lane id="7995_0" index="0" disallow="pedestrian tram rail_urban rail rail_electric rail_fast ship" speed="36.11" length="70.00" width="3.50" customShape="1" shape="-660.55,-850.31 -658.19,-847.66 -656.08,-845.58 -654.22,-844.01 -653.12,-843.26 -650.31,-841.91 -648.81,-840.90 -647.48,-839.59 -646.40,-838.14 -645.80,-837.02 -645.36,-835.69 -645.18,-833.74 -645.35,-831.92 -645.76,-830.25 -646.42,-828.59 -647.72,-826.57 -648.81,-825.21 -650.06,-824.02 -651.00,-823.34 -652.58,-822.52 -654.06,-821.80 -655.42,-821.07 -656.87,-820.43 -658.49,-819.79 -659.69,-819.06 -661.66,-817.62 -664.30,-815.32 -670.89,-808.85 -674.28,-805.04 -676.96,-801.87"/>
    </edge>
    <edge id="7997" from="43" to="44" priority="3" type="highway.residential" spreadType="center" length="35.67" shape="-765.97,-788.79 -699.65,-797.83">
        <lane id="7997_0" index="0" disallow="pedestrian tram rail_urban rail rail_electric rail_fast ship" speed="36.11" length="35.67" width="3.50" customShape="1" shape="-745.69,-782.99 -745.28,-782.72 -741.77,-780.11 -740.14,-779.05 -738.80,-778.47 -737.38,-778.14 -735.44,-778.01 -733.02,-778.19 -728.69,-778.83 -725.78,-779.07 -721.41,-778.92 -718.49,-778.87 -716.56,-779.09 -714.69,-779.60 -711.80,-780.72"/>
    </edge>
    <edge id="7998" from="44" to="43" priority="3" type="highway.residential" spreadType="center" length="38.95" shape="-699.18,-794.36 -765.49,-785.32">
        <lane id="7998_0" index="0" disallow="pedestrian tram rail_urban rail rail_electric rail_fast ship" speed="36.11" length="38.95" width="3.50" customShape="1" shape="-710.54,-777.46 -713.56,-776.29 -715.72,-775.69 -718.00,-775.40 -721.20,-775.41 -725.69,-775.57 -728.59,-775.31 -733.17,-774.66 -735.90,-774.52 -738.18,-774.73 -739.92,-775.16 -741.59,-775.86 -743.52,-777.05 -747.20,-779.80 -747.58,-780.04"/>
    </edge>
    <edge id="8000" from="42" to="43" priority="3" type="highway.residential" spreadType="center" length="67.28" shape="-790.82,-879.49 -764.04,-787.51">
        <lane id="8000_0" index="0" disallow="pedestrian tram rail_urban rail rail_electric rail_fast ship" speed="36.11" length="67.28" width="3.50" customShape="1" shape="-789.11,-866.28 -787.58,-853.40 -787.11,-847.45 -786.74,-833.51 -786.41,-827.55 -785.82,-822.61 -785.07,-818.70 -784.69,-817.25 -783.05,-813.63 -782.55,-812.77 -780.68,-810.44 -777.90,-807.59 -773.36,-803.61"/>
    </edge>
    <edge id="8001" from="43" to="42" priority="3" type="highway.residential" spreadType="center" length="69.84" shape="-767.40,-786.53 -794.18,-878.51">
        <lane id="8001_0" index="0" disallow="pedestrian tram rail_urban rail rail_electric rail_fast ship" speed="36.11" length="69.84" width="3.50" customShape="1" shape="-775.67,-800.98 -780.32,-805.06 -783.25,-808.08 -785.26,-810.55 -785.95,-811.63 -787.73,-815.45 -788.29,-817.17 -789.14,-821.26 -789.82,-826.41 -790.21,-832.58 -790.58,-846.77 -791.03,-852.75 -792.59,-865.87"/>
    </edge>
    <edge id="8037" from="41" to="15" priority="3" type="highway.residential" spreadType="center" length="63.94" shape="-783.71,-762.46 -723.78,-744.88">
        <lane id="8037_0" index="0" disallow="pedestrian tram rail_urban rail rail_electric rail_fast ship" speed="36.11" length="63.94" width="3.50" customShape="1" shape="-773.08,-752.64 -770.12,-748.62 -766.14,-743.48 -763.19,-740.09 -760.35,-737.27 -757.66,-735.04 -755.18,-733.36 -752.52,-731.97 -750.19,-731.07 -747.78,-730.44 -744.81,-730.03 -742.81,-730.06 -741.35,-730.35 -739.48,-731.07 -737.76,-732.08 -735.78,-733.60 -733.58,-735.64 -729.41,-739.95 -726.15,-743.04 -723.78,-744.88"/>
    </edge>
    <edge id="8038" from="28" to="41" priority="3" type="highway.residential" spreadType="center" length="69.44" shape="-721.70,-742.07 -784.66,-759.09">
        <lane id="8038_0" index="0" disallow="pedestrian tram rail_urban rail rail_electric rail_fast ship" speed="36.11" length="69.44" width="3.50" customShape="1" shape="-721.70,-742.07 -724.08,-740.20 -727.38,-737.01 -731.79,-732.52 -734.24,-730.35 -736.53,-728.73 -738.58,-727.65 -740.80,-726.89 -742.60,-726.57 -744.96,-726.53 -748.29,-726.97 -751.00,-727.66 -753.62,-728.63 -756.58,-730.13 -759.36,-731.94 -762.32,-734.34 -765.41,-737.35 -768.59,-740.96 -772.80,-746.36 -775.90,-750.58"/>
    </edge>
    <edge id="8060" from="20" to="21" priority="3" type="highway.residential" spreadType="center" length="8.32">
        <lane id="8060_0" index="0" disallow="pedestrian tram rail_urban rail rail_electric rail_fast ship" speed="36.11" length="8.32" width="3.50" customShape="1" shape="-743.20,-816.07 -742.25,-814.86 -740.52,-812.91 -737.34,-810.20"/>
    </edge>
    <edge id="8061" from="40" to="39" priority="3" type="highway.residential" spreadType="center" length="8.94">
        <lane id="8061_0" index="0" disallow="pedestrian tram rail_urban rail rail_electric rail_fast ship" speed="36.11" length="8.94" width="3.50" customShape="1" shape="-739.61,-807.54 -742.96,-810.41 -744.88,-812.54 -745.90,-813.85"/>
    </edge>
    <edge id="8086" from="29" to="44" priority="3" type="highway.residential" spreadType="center" length="31.77" shape="-733.66,-831.87 -698.19,-797.30">
        <lane id="8086_0" index="0" disallow="pedestrian tram rail_urban rail rail_electric rail_fast ship" speed="36.11" length="31.77" width="3.50" customShape="1" shape="-730.75,-829.16 -729.17,-827.68 -725.25,-823.63 -723.57,-821.70 -721.28,-818.30 -719.67,-816.31 -716.84,-813.34 -714.48,-811.37 -713.19,-810.55 -709.93,-809.06 -707.90,-807.66"/>
    </edge>
    <edge id="8087" from="44" to="38" priority="3" type="highway.residential" spreadType="center" length="32.24" shape="-700.63,-794.80 -736.01,-829.28">
        <lane id="8087_0" index="0" disallow="pedestrian tram rail_urban rail rail_electric rail_fast ship" speed="36.11" length="32.24" width="3.50" customShape="1" shape="-709.88,-804.77 -711.85,-806.12 -715.11,-807.62 -716.58,-808.57 -719.11,-810.68 -722.08,-813.75 -723.83,-815.86 -726.13,-819.27 -727.68,-821.10 -731.54,-825.11 -733.10,-826.56"/>
    </edge>
    <edge id="8095" from="42" to="33" priority="3" type="highway.residential" spreadType="center" length="70.00" shape="-792.82,-880.72 -704.89,-895.34">
        <lane id="8095_0" index="0" disallow="pedestrian tram rail_urban rail rail_electric rail_fast ship" speed="36.11" length="70.00" width="3.50" customShape="1" shape="-774.63,-889.81 -762.17,-891.42 -746.71,-893.02 -729.72,-894.35 -715.70,-895.05 -704.89,-895.34"/>
    </edge>
    <edge id="8096" from="36" to="42" priority="3" type="highway.residential" spreadType="center" length="70.06" shape="-704.38,-891.87 -792.25,-877.27">
        <lane id="8096_0" index="0" disallow="pedestrian tram rail_urban rail rail_electric rail_fast ship" speed="36.11" length="70.06" width="3.50" customShape="1" shape="-704.38,-891.87 -714.99,-891.58 -729.06,-890.89 -746.12,-889.55 -761.64,-887.96 -774.18,-886.34"/>
    </edge>
    <edge id="8098" from="37" to="42" priority="3" type="highway.residential" spreadType="center" length="70.00" shape="-881.45,-872.74 -792.62,-880.75">
        <lane id="8098_0" index="0" disallow="pedestrian tram rail_urban rail rail_electric rail_fast ship" speed="36.11" length="70.00" width="3.50" customShape="1" shape="-881.45,-872.74 -863.76,-876.50 -850.40,-879.03 -835.47,-881.41 -812.49,-884.61"/>
    </edge>
    <edge id="8099" from="42" to="35" priority="3" type="highway.residential" spreadType="center" length="69.99" shape="-792.31,-877.26 -881.01,-869.26">
        <lane id="8099_0" index="0" disallow="pedestrian tram rail_urban rail rail_electric rail_fast ship" speed="36.11" length="69.99" width="3.50" customShape="1" shape="-812.06,-881.13 -834.96,-877.95 -849.83,-875.57 -863.13,-873.06 -881.01,-869.26"/>
    </edge>
    <edge id="8205" from="41" to="17" priority="3" type="highway.residential" spreadType="center" length="17.11" shape="-783.09,-759.38 -811.73,-739.50">
        <lane id="8205_0" index="0" disallow="pedestrian tram rail_urban rail rail_electric rail_fast ship" speed="36.11" length="17.11" width="3.50" customShape="1" shape="-800.46,-752.37 -803.51,-748.88 -811.73,-739.50"/>
    </edge>
    <edge id="8206" from="30" to="41" priority="3" type="highway.residential" spreadType="center" length="17.13" shape="-814.34,-741.83 -785.09,-762.25">
        <lane id="8206_0" index="0" disallow="pedestrian tram rail_urban rail rail_electric rail_fast ship" speed="36.11" length="17.13" width="3.50" customShape="1" shape="-814.34,-741.83 -806.13,-751.20 -803.06,-754.72"/>
    </edge>
    <edge id="8208" from="43" to="41" priority="3" type="highway.residential" spreadType="center" length="0.25" shape="-764.25,-786.13 -782.72,-759.76">
        <lane id="8208_0" index="0" disallow="pedestrian tram rail_urban rail rail_electric rail_fast ship" speed="36.11" length="0.25" width="3.50" customShape="1" shape="-774.68,-776.27 -774.74,-776.18 -774.83,-776.07"/>
    </edge>
    <edge id="8209" from="41" to="43" priority="3" type="highway.residential" spreadType="center" length="0.28" shape="-785.59,-761.77 -767.11,-788.13">
        <lane id="8209_0" index="0" disallow="pedestrian tram rail_urban rail rail_electric rail_fast ship" speed="36.11" length="0.28" width="3.50" customShape="1" shape="-777.60,-778.21 -777.50,-778.33 -777.43,-778.43"/>
    </edge>
    <edge id="8437" from="38" to="20" priority="3" type="highway.residential" spreadType="center" length="25.28">
        <lane id="8437_0" index="0" disallow="pedestrian tram rail_urban rail rail_electric rail_fast ship" speed="36.11" length="25.28" width="3.49" customShape="1" shape="-739.08,-831.80 -739.50,-832.14 -741.32,-833.37 -743.23,-834.41 -744.16,-834.80 -745.11,-835.10 -746.03,-835.29 -746.92,-835.34 -747.73,-835.25 -748.46,-835.01 -749.14,-834.62 -749.85,-833.98 -749.96,-833.85 -750.57,-833.02 -750.98,-832.06 -751.17,-831.03 -751.16,-829.98 -751.01,-828.95 -750.75,-827.94 -750.40,-826.95 -749.52,-825.05 -748.48,-823.24 -747.61,-821.96"/>
    </edge>
    <edge id="8438" from="39" to="29" priority="3" type="highway.residential" spreadType="center" length="35.55">
        <lane id="8438_0" index="0" disallow="pedestrian tram rail_urban rail rail_electric rail_fast ship" speed="36.11" length="35.55" width="3.50" customShape="1" shape="-750.43,-819.90 -751.76,-821.93 -752.97,-824.20 -753.94,-826.59 -754.32,-827.91 -754.56,-829.27 -754.64,-830.69 -754.51,-832.15 -754.12,-833.60 -753.46,-834.98 -752.58,-836.17 -752.43,-836.33 -752.35,-836.42 -751.36,-837.34 -750.25,-838.08 -749.01,-838.59 -747.70,-838.86 -746.36,-838.89 -745.03,-838.72 -743.73,-838.38 -742.48,-837.92 -740.08,-836.71 -737.83,-835.25 -736.74,-834.39"/>
    </edge>

    <junction id="15" type="dead_end" x="-723.78" y="-744.88" incLanes="8037_0" intLanes="" shape="-724.86,-746.26 -722.71,-743.50" rightOfWay="edgePriority"/>
    <junction id="17" type="dead_end" x="-811.73" y="-739.50" incLanes="8205_0" intLanes="" shape="-810.42,-738.34 -813.05,-740.65" rightOfWay="edgePriority"/>
    <junction id="20" type="priority" x="-745.46" y="-818.97" incLanes="8437_0" intLanes=":20_0_0" shape="-744.58,-814.99 -741.82,-817.15 -746.22,-823.01 -749.01,-820.90" rightOfWay="edgePriority">
        <request index="0" response="0" foes="0" cont="0"/>
    </junction>
    <junction id="21" type="dead_end" x="-737.34" y="-810.20" incLanes="8060_0" intLanes="" shape="-736.21,-811.53 -738.47,-808.87" rightOfWay="edgePriority"/>
    <junction id="25" type="dead_end" x="-666.33" y="-851.53" incLanes="7994_0" intLanes="" shape="-667.64,-850.37 -665.03,-852.69" rightOfWay="edgePriority"/>
    <junction id="28" type="dead_end" x="-721.70" y="-742.07" incLanes="" intLanes="" shape="-722.78,-743.45 -720.62,-740.69" rightOfWay="edgePriority"/>
    <junction id="29" type="priority" x="-733.66" y="-831.87" incLanes="8438_0" intLanes=":29_0_0" shape="-731.95,-827.88 -729.56,-830.44 -735.59,-835.71 -737.90,-833.07" rightOfWay="edgePriority">
        <request index="0" response="0" foes="0" cont="0"/>
    </junction>
    <junction id="30" type="dead_end" x="-814.34" y="-741.83" incLanes="" intLanes="" shape="-813.02,-740.68 -815.66,-742.98" rightOfWay="edgePriority"/>
    <junction id="31" type="dead_end" x="-660.55" y="-850.31" incLanes="" intLanes="" shape="-661.86,-849.15 -659.25,-851.48" rightOfWay="edgePriority"/>
    <junction id="33" type="dead_end" x="-704.89" y="-895.34" incLanes="8095_0" intLanes="" shape="-704.94,-897.09 -704.84,-893.59" rightOfWay="edgePriority"/>