<routes>
	<vehicle depart="0.1" departLane="0" departPos="18.870347400391992" departSpeed="17.679749" id="311" type="passenger">
		<route edges=":44_5 7994"/>
	</vehicle>
	<vehicle depart="0.1" departLane="0" departPos="31.69446861452102" departSpeed="20.742494" id="328" type="passenger">
		<route edges=":43_2 7997 7994"/>
	</vehicle>
	<vehicle depart="0.1" departLane="0" departPos="18.819632739882238" departSpeed="0.014819934" id="332" type="passenger">
		<route edges="7998 8001"/>
	</vehicle>
	<vehicle depart="0.1" departLane="0" departPos="11.23721551558578" departSpeed="0.088124882" id="334" type="passenger">
		<route edges="7998 8001"/>
	</vehicle>
	<vehicle depart="0.1" departLane="0" departPos="7.175759079758263" departSpeed="1.7223327" id="346" type="passenger">
		<route edges=":44_1 8087"/>
	</vehicle>
	<vehicle depart="0.1" departLane="0" departPos="36.14093707765005" departSpeed="1.907231" id="351" type="passenger">
		<route edges="7995 7998"/>
	</vehicle>
</routes>
