<!-- generated on 2020-12-18 16:01:55.058829 by ipykernel_launcher.py v1_2_0+5214-53edc58fcd
-->
<edges>
	<edge from="1" function="normal" id="3431" length="7.746632106922337" numLanes="5" priority="1" speed="36.11111111111111" spreadType="center" to="2">
		<lane allow="moped bicycle pedestrian custom1 trailer evehicle rail_urban ship private truck vip custom2 authority delivery rail_electric taxi tram army hov coach motorcycle passenger bus rail emergency" index="0" length="7.746632106922337" shape="22.07815,68.2387 18.53605,61.2282" speed="36.11111111111111" width="2.8417555225599576"/>
		<lane allow="moped bicycle pedestrian custom1 trailer evehicle rail_urban ship private truck vip custom2 authority delivery rail_electric taxi tram army hov coach motorcycle passenger bus rail emergency" index="1" length="7.746632106922337" shape="24.705399999999997,66.89 21.22255,59.882099999999994" speed="36.11111111111111" width="3.0646593807469027"/>
		<lane allow="moped bicycle pedestrian custom1 trailer evehicle rail_urban ship private truck vip custom2 authority delivery rail_electric taxi tram army hov coach motorcycle passenger bus rail emergency" index="2" length="7.746632106922337" shape="27.416449999999998,65.49825 23.9688,58.5236" speed="36.11111111111111" width="3.0301778330652516"/>
		<lane allow="moped bicycle pedestrian custom1 trailer evehicle rail_urban ship private truck vip custom2 authority delivery rail_electric taxi tram army hov coach motorcycle passenger bus rail emergency" index="3" length="7.746632106922337" shape="30.1347,64.1028 26.7033,57.1576" speed="36.11111111111111" width="3.0528378404363354"/>
		<lane allow="moped bicycle pedestrian custom1 trailer evehicle rail_urban ship private truck vip custom2 authority delivery rail_electric taxi tram army hov coach motorcycle passenger bus rail emergency" index="4" length="7.746632106922337" shape="32.86,62.70375 29.42905,55.7148" speed="36.11111111111111" width="3.0460097258544647"/>
	</edge>
	<edge from="2" function="normal" id="3438" length="8.438893355322122" numLanes="6" priority="1" speed="36.11111111111111" spreadType="center" to="3">
		<lane allow="moped bicycle pedestrian custom1 trailer evehicle rail_urban ship private truck vip custom2 authority delivery rail_electric taxi tram army hov coach motorcycle passenger bus rail emergency" index="0" length="8.438893355322122" shape="18.53605,61.2282 11.8612,54.95145" speed="36.11111111111111" width="2.943512814648509"/>
		<lane allow="moped bicycle pedestrian custom1 trailer evehicle rail_urban ship private truck vip custom2 authority delivery rail_electric taxi tram army hov coach motorcycle passenger bus rail emergency" index="1" length="8.438893355322122" shape="18.53605,61.2282 14.7025,53.61855" speed="36.11111111111111" width="2.943512814648509"/>
		<lane allow="moped bicycle pedestrian custom1 trailer evehicle rail_urban ship private truck vip custom2 authority delivery rail_electric taxi tram army hov coach motorcycle passenger bus rail emergency" index="2" length="8.438893355322122" shape="21.22255,59.882099999999994 17.451050000000002,52.287" speed="36.11111111111111" width="3.0546153096584816"/>
		<lane allow="moped bicycle pedestrian custom1 trailer evehicle rail_urban ship private truck vip custom2 authority delivery rail_electric taxi tram army hov coach motorcycle passenger bus rail emergency" index="3" length="8.438893355322122" shape="23.9688,58.5236 20.1821,50.94415" speed="36.11111111111111" width="3.032458014548595"/>
		<lane allow="moped bicycle pedestrian custom1 trailer evehicle rail_urban ship private truck vip custom2 authority delivery rail_electric taxi tram army hov coach motorcycle passenger bus rail emergency" index="4" length="8.438893355322122" shape="26.7033,57.1576 22.901,49.56295" speed="36.11111111111111" width="3.0528378404363354"/>
		<lane allow="moped bicycle pedestrian custom1 trailer evehicle rail_urban ship private truck vip custom2 authority delivery rail_electric taxi tram army hov coach motorcycle passenger bus rail emergency" index="5" length="8.438893355322122" shape="29.42905,55.7148 25.6889,48.150000000000006" speed="36.11111111111111" width="3.1152791608457813"/>
	</edge>
	<edge from="3" function="normal" id="3450" length="24.49487124148037" numLanes="6" priority="1" speed="36.11111111111111" spreadType="center" to="4">
		<lane allow="moped bicycle pedestrian custom1 trailer evehicle rail_urban ship private truck vip custom2 authority delivery rail_electric taxi tram army hov coach motorcycle passenger bus rail emergency" index="0" length="24.49487124148037" shape="11.8612,54.95145 8.6965,48.7174 4.9082,41.030249999999995 0.8225,33.08565" speed="36.11111111111111" width="3.2241062653082633"/>
		<lane allow="moped bicycle pedestrian custom1 trailer evehicle rail_urban ship private truck vip custom2 authority delivery rail_electric taxi tram army hov coach motorcycle passenger bus rail emergency" index="1" length="24.49487124148037" shape="14.7025,53.61855 11.695,47.566950000000006 7.87205,39.618700000000004 3.7682,31.481949999999998" speed="36.11111111111111" width="2.866561921535972"/>
		<lane allow="moped bicycle pedestrian custom1 trailer evehicle rail_urban ship private truck vip custom2 authority delivery rail_electric taxi tram army hov coach motorcycle passenger bus rail emergency" index="2" length="24.49487124148037" shape="17.451050000000002,52.287 14.428049999999999,46.23555 10.57425,38.28775 6.4107,30.1634" speed="36.11111111111111" width="3.004221073756058"/>
		<lane allow="moped bicycle pedestrian custom1 trailer evehicle rail_urban ship private truck vip custom2 authority delivery rail_electric taxi tram army hov coach motorcycle passenger bus rail emergency" index="3" length="24.49487124148037" shape="20.1821,50.94415 17.0957,44.7859 13.211,36.838499999999996 9.19535,28.789" speed="36.11111111111111" width="3.0189875720181423"/>
		<lane allow="moped bicycle pedestrian custom1 trailer evehicle rail_urban ship private truck vip custom2 authority delivery rail_electric taxi tram army hov coach motorcycle passenger bus rail emergency" index="4" length="24.49487124148037" shape="22.901,49.56295 19.78255,43.32825 15.89785,35.380849999999995 11.95845,27.395699999999998" speed="36.11111111111111" width="3.018395509206838"/>
		<lane allow="moped bicycle pedestrian custom1 trailer evehicle rail_urban ship private truck vip custom2 authority delivery rail_electric taxi tram army hov coach motorcycle passenger bus rail emergency" index="5" length="24.49487124148037" shape="25.6889,48.150000000000006 22.47645,41.82435 18.591749999999998,33.87695 14.654250000000001,26.022550000000003" speed="36.11111111111111" width="3.0323687935341903"/>
	</edge>
	<edge from="4" function="normal" id="3664" length="45.62159337177896" numLanes="2" priority="1" speed="36.11111111111111" spreadType="center" to="5">
		<lane allow="moped bicycle pedestrian custom1 trailer evehicle rail_urban ship private vip custom2 authority delivery rail_electric taxi tram army hov coach motorcycle passenger rail emergency" index="0" length="45.62159337177896" shape="11.95845,27.395699999999998 8.200099999999999,20.0143 6.0647,15.606349999999999 4.9998000000000005,13.07445 4.52635,11.0266 4.39855,8.661200000000001 4.84,5.874499999999999 5.5751,3.3083 6.6415500000000005,1.3695499999999998 8.054400000000001,-0.77685 11.17465,-3.7518 17.21925,-7.2345 26.232,-11.949200000000001" speed="36.11111111111111" width="2.9349357471672195"/>
		<lane allow="moped bicycle pedestrian custom1 trailer evehicle rail_urban ship private vip custom2 authority delivery rail_electric taxi tram army hov coach motorcycle passenger rail emergency" index="1" length="45.62159337177896" shape="14.654250000000001,26.022550000000003 11.30285,19.24635 9.69495,15.200949999999999 9.03115,12.8097 8.7548,11.02835 8.5868,8.995550000000001 8.81605,6.8878 9.4643,5.12195 10.43065,3.5408999999999997 11.75665,1.9216499999999999 14.2295,-0.6467499999999999 19.4941,-4.4051 27.77685,-8.8576" speed="36.11111111111111" width="3.0323687935341903"/>
	</edge>
	<edge from="5" function="normal" id="3495" length="15.184501575044738" numLanes="3" priority="1" speed="36.11111111111111" spreadType="center" to="6">
		<lane allow="moped bicycle pedestrian custom1 trailer evehicle rail_urban ship private truck vip custom2 authority delivery rail_electric taxi tram army hov coach motorcycle passenger bus rail emergency" index="0" length="15.184501575044738" shape="24.60895,-15.2773 33.33625,-19.57235 38.24405,-21.987650000000002" speed="36.11111111111111" width="3.8765859644795686"/>
		<lane allow="moped bicycle pedestrian custom1 trailer evehicle rail_urban ship private truck vip custom2 authority delivery rail_electric taxi tram army hov coach motorcycle passenger bus rail emergency" index="1" length="15.184501575044738" shape="26.232,-11.949200000000001 34.959149999999994,-16.24275 39.87775,-18.662550000000003" speed="36.11111111111111" width="3.511789538113011"/>
		<lane allow="moped bicycle pedestrian custom1 trailer evehicle rail_urban ship private truck vip custom2 authority delivery rail_electric taxi tram army hov coach motorcycle passenger bus rail emergency" index="2" length="15.184501575044738" shape="27.77685,-8.8576 36.45565,-13.1262 41.40245,-15.55925" speed="36.11111111111111" width="3.382313814535845"/>
	</edge>
	<edge from="4" function="normal" id="3610" length="13.553882434287969" numLanes="3" priority="1" speed="36.11111111111111" spreadType="center" to="7">
		<lane allow="moped bicycle pedestrian custom1 trailer evehicle rail_urban ship private truck vip custom2 authority delivery rail_electric taxi tram army hov coach motorcycle passenger bus rail emergency" index="0" length="13.553882434287969" shape="3.7682,31.481949999999998 -2.2685,19.30605" speed="36.11111111111111" width="2.866561921535972"/>
		<lane allow="moped bicycle pedestrian custom1 trailer evehicle rail_urban ship private truck vip custom2 authority delivery rail_electric taxi tram army hov coach motorcycle passenger bus rail emergency" index="1" length="13.553882434287969" shape="6.4107,30.1634 0.46045,17.9722" speed="36.11111111111111" width="3.0173836033888697"/>
		<lane allow="moped bicycle pedestrian custom1 trailer evehicle rail_urban ship private truck vip custom2 authority delivery rail_electric taxi tram army hov coach motorcycle passenger bus rail emergency" index="2" length="13.553882434287969" shape="9.19535,28.789 3.2165500000000002,16.62505" speed="36.11111111111111" width="3.1180545505170367"/>
	</edge>
	<edge from="7" function="normal" id="3646" length="16.50963275573512" numLanes="3" priority="1" speed="36.11111111111111" spreadType="center" to="8">
		<lane allow="moped bicycle pedestrian custom1 trailer evehicle rail_urban ship private truck vip custom2 authority delivery rail_electric taxi tram army hov coach motorcycle passenger bus rail emergency" index="0" length="16.50963275573512" shape="-2.2685,19.30605 -3.7024999999999997,16.41365 -5.33575,13.1191 -6.74085,10.2852 -8.12625,7.4908 -9.601849999999999,4.5145" speed="36.11111111111111" width="3.0575892938718896"/>
		<lane allow="moped bicycle pedestrian custom1 trailer evehicle rail_urban ship private truck vip custom2 authority delivery rail_electric taxi tram army hov coach motorcycle passenger bus rail emergency" index="1" length="16.50963275573512" shape="0.46045,17.9722 -0.9687999999999999,15.044 -2.58305,11.7365 -3.9741,8.8884 -5.354,6.062950000000001 -6.822799999999999,3.0557" speed="36.11111111111111" width="2.9903827313573084"/>
		<lane allow="moped bicycle pedestrian custom1 trailer evehicle rail_urban ship private truck vip custom2 authority delivery rail_electric taxi tram army hov coach motorcycle passenger bus rail emergency" index="2" length="16.50963275573512" shape="3.2165500000000002,16.62505 1.7659500000000001,13.6738 0.14080000000000004,10.3674 -1.2602,7.5183 -2.6586,4.67465 -4.14575,1.65055" speed="36.11111111111111" width="3.0564489100915786"/>
	</edge>
	<edge from="8" function="normal" id="3626" length="12.19057411086533" numLanes="3" priority="1" speed="36.11111111111111" spreadType="center" to="9">
		<lane allow="moped bicycle pedestrian custom1 trailer evehicle rail_urban ship private truck vip custom2 authority delivery rail_electric taxi tram army hov coach motorcycle passenger bus rail emergency" index="0" length="12.19057411086533" shape="-9.601849999999999,4.5145 -15.017149999999999,-6.4072499999999994" speed="36.11111111111111" width="3.2869467488841386"/>
		<lane allow="moped bicycle pedestrian custom1 trailer evehicle rail_urban ship private truck vip custom2 authority delivery rail_electric taxi tram army hov coach motorcycle passenger bus rail emergency" index="1" length="12.19057411086533" shape="-6.822799999999999,3.0557 -12.1735,-7.899900000000001" speed="36.11111111111111" width="2.969358961122753"/>
		<lane allow="moped bicycle pedestrian custom1 trailer evehicle rail_urban ship private truck vip custom2 authority delivery rail_electric taxi tram army hov coach motorcycle passenger bus rail emergency" index="2" length="12.19057411086533" shape="-4.14575,1.65055 -9.52545,-9.289850000000001" speed="36.11111111111111" width="3.0119886487169905"/>
	</edge>
	<edge from="9" function="normal" id="3542" length="42.04503365774767" numLanes="3" priority="1" speed="36.11111111111111" spreadType="center" to="10">
		<lane allow="moped bicycle pedestrian custom1 trailer evehicle rail_urban ship private truck vip custom2 authority delivery rail_electric taxi tram army hov coach motorcycle passenger rail emergency" index="0" length="42.04503365774767" shape="-15.017149999999999,-6.4072499999999994 -19.178449999999998,-14.94595 -23.2317,-23.87595 -27.00375,-32.59445 -30.628500000000003,-41.8384 -31.94625,-45.051550000000006" speed="36.11111111111111" width="2.8481341330773056"/>
		<lane allow="moped bicycle pedestrian custom1 trailer evehicle rail_urban ship private truck vip custom2 authority delivery rail_electric taxi tram army hov coach motorcycle passenger bus rail emergency" index="1" length="42.04503365774767" shape="-12.1735,-7.899900000000001 -16.4169,-16.4547 -20.49905,-25.2381 -24.2397,-33.9263 -27.893700000000003,-43.0466 -29.23975,-46.385149999999996" speed="36.11111111111111" width="2.969358961122753"/>
		<lane allow="moped bicycle pedestrian custom1 trailer evehicle rail_urban ship private truck vip custom2 authority delivery rail_electric taxi tram army hov coach motorcycle passenger bus rail emergency" index="2" length="42.04503365774767" shape="-9.52545,-9.289850000000001 -13.74825,-17.9698 -17.7986,-26.6921 -21.570149999999998,-35.3799 -25.065,-44.179249999999996 -26.4777,-47.7461" speed="36.11111111111111" width="2.962201547835663"/>
	</edge>
	<edge from="4" function="normal" id="3604" length="15.837809304392048" numLanes="1" priority="1" speed="36.11111111111111" spreadType="center" to="11">
		<lane allow="moped bicycle pedestrian custom1 trailer evehicle rail_urban ship private vip custom2 authority delivery rail_electric taxi tram army hov coach motorcycle passenger rail emergency" index="0" length="15.837809304392048" shape="0.8225,33.08565 -0.21975,31.811550000000004 -1.4785,30.2597 -2.8665,28.86345 -4.7469,27.628149999999998 -6.4481,27.04435 -8.2443,26.84665 -10.166,27.06615 -12.482,27.81835" speed="36.11111111111111" width="3.8433909311960455"/>
	</edge>
	<edge from="11" function="normal" id="3487" length="21.428343053832" numLanes="3" priority="1" speed="36.11111111111111" spreadType="center" to="12">
		<lane allow="moped bicycle pedestrian custom1 trailer evehicle rail_urban ship private truck vip custom2 authority delivery rail_electric taxi tram army hov coach motorcycle passenger bus rail emergency" index="0" length="21.428343053832" shape="-12.482,27.81835 -21.695500000000003,32.25775 -30.532400000000003,37.076449999999994 -31.52875,37.62165" speed="36.11111111111111" width="4.576431161942677"/>
		<lane allow="moped bicycle pedestrian custom1 trailer evehicle rail_urban ship private truck vip custom2 authority delivery rail_electric taxi tram army hov coach motorcycle passenger bus rail emergency" index="1" length="21.428343053832" shape="-14.199300000000001,23.3644 -23.589750000000002,28.40645 -32.2362,33.576449999999994 -33.263149999999996,34.192899999999995" speed="36.11111111111111" width="3.108481309256984"/>
		<lane allow="moped bicycle pedestrian custom1 trailer evehicle rail_urban ship private truck vip custom2 authority delivery rail_electric taxi tram army hov coach motorcycle passenger bus rail emergency" index="2" length="21.428343053832" shape="-15.335,20.1333 -25.1167,25.38095 -33.763149999999996,30.55095 -34.79275,31.16905" speed="36.11111111111111" width="3.6645851129425266"/>
	</edge>
	<edge from="13" function="normal" id="3479" length="22.651817425696017" numLanes="3" priority="1" speed="36.11111111111111" spreadType="center" to="14">
		<lane allow="moped bicycle pedestrian custom1 trailer evehicle rail_urban ship private truck vip custom2 authority delivery rail_electric taxi tram army hov coach motorcycle passenger bus rail emergency" index="0" length="22.651817425696017" shape="-39.65605,21.55475 -38.5135,20.97685 -28.933500000000002,16.2245 -19.323050000000002,11.44095" speed="36.11111111111111" width="3.231198096681789"/>
		<lane allow="moped bicycle pedestrian custom1 trailer evehicle rail_urban ship private truck vip custom2 authority delivery rail_electric taxi tram army hov coach motorcycle passenger rail emergency" index="1" length="22.651817425696017" shape="-38.244550000000004,24.34515 -37.082750000000004,23.75745 -27.50275,19.0051 -17.892249999999997,14.22155" speed="36.11111111111111" width="3.022973122606284"/>
		<lane allow="moped bicycle pedestrian custom1 trailer evehicle rail_urban ship private truck vip custom2 authority delivery rail_electric taxi tram army hov coach motorcycle passenger rail emergency" index="2" length="22.651817425696017" shape="-36.872,27.05855 -35.6764,26.45375 -26.096400000000003,21.7014 -16.5855,16.9808" speed="36.11111111111111" width="3.058616492795397"/>
	</edge>
	<edge from="14" function="normal" id="3672" length="43.42964317851892" numLanes="1" priority="1" speed="36.11111111111111" spreadType="center" to="15">
		<lane allow="moped bicycle pedestrian custom1 trailer evehicle rail_urban ship private vip custom2 authority delivery rail_electric taxi tram army hov coach motorcycle passenger rail emergency" index="0" length="43.42964317851892" shape="-16.5855,16.9808 -11.4283,14.440449999999998 -7.8454999999999995,12.95595 -3.99965,11.5973 -1.21895,10.626999999999999 1.267,10.13015 3.50185,9.91775 5.83805,10.034749999999999 7.48255,10.16915 8.591999999999999,10.4254 9.53175,11.0084 10.451,12.3586 11.6067,14.28695 14.274149999999999,18.5244 15.847900000000001,21.57615 17.319650000000003,24.688299999999998" speed="36.11111111111111" width="2.91718217634758"/>
	</edge>
	<edge from="15" function="normal" id="3456" length="24.71092057982317" numLanes="3" priority="1" speed="36.11111111111111" spreadType="center" to="16">
		<lane allow="moped bicycle pedestrian custom1 trailer evehicle rail_urban ship private truck vip custom2 authority delivery rail_electric taxi tram army hov coach motorcycle passenger bus rail emergency" index="0" length="24.71092057982317" shape="22.8463,21.9286 26.4421,29.1222 30.295450000000002,37.0393 33.658100000000005,44.1477" speed="36.11111111111111" width="3.0476685974692135"/>
		<lane allow="moped bicycle pedestrian custom1 trailer evehicle rail_urban ship private truck vip custom2 authority delivery rail_electric taxi tram army hov coach motorcycle passenger bus rail emergency" index="1" length="24.71092057982317" shape="20.01745,23.32285 23.87755,30.88975 27.555799999999998,38.455349999999996 30.99465,45.4858" speed="36.11111111111111" width="2.9148241130469628"/>
		<lane allow="moped bicycle pedestrian custom1 trailer evehicle rail_urban ship private truck vip custom2 authority delivery rail_electric taxi tram army hov coach motorcycle passenger bus rail emergency" index="2" length="24.71092057982317" shape="17.319650000000003,24.688299999999998 21.24815,32.4505 25.0366,40.15305 28.40815,46.79965" speed="36.11111111111111" width="2.8880043801905857"/>
	</edge>
	<edge from="16" function="normal" id="3462" length="8.466645302154806" numLanes="3" priority="1" speed="36.11111111111111" spreadType="center" to="17">
		<lane allow="moped bicycle pedestrian custom1 trailer evehicle rail_urban ship private truck vip custom2 authority delivery rail_electric taxi tram army hov coach motorcycle passenger bus rail emergency" index="0" length="8.466645302154806" shape="33.658100000000005,44.1477 37.537400000000005,51.71045" speed="36.11111111111111" width="3.0476685974692135"/>
		<lane allow="moped bicycle pedestrian custom1 trailer evehicle rail_urban ship private truck vip custom2 authority delivery rail_electric taxi tram army hov coach motorcycle passenger bus rail emergency" index="1" length="8.466645302154806" shape="30.99465,45.4858 34.81275,53.0955" speed="36.11111111111111" width="2.9148241130469628"/>
		<lane allow="moped bicycle pedestrian custom1 trailer evehicle rail_urban ship private truck vip custom2 authority delivery rail_electric taxi tram army hov coach motorcycle passenger bus rail emergency" index="2" length="8.466645302154806" shape="28.40815,46.79965 32.1488,54.39515" speed="36.11111111111111" width="2.8880043801905857"/>
	</edge>
	<edge from="17" function="normal" id="3470" length="7.644506528383624" numLanes="3" priority="1" speed="36.11111111111111" spreadType="center" to="18">
		<lane allow="moped bicycle pedestrian custom1 trailer evehicle rail_urban ship private truck vip custom2 authority delivery rail_electric taxi tram army hov coach motorcycle passenger bus rail emergency" index="0" length="7.644506528383624" shape="37.537400000000005,51.71045 40.928799999999995,58.561499999999995" speed="36.11111111111111" width="3.0549991620293464"/>
		<lane allow="moped bicycle pedestrian custom1 trailer evehicle rail_urban ship private truck vip custom2 authority delivery rail_electric taxi tram army hov coach motorcycle passenger bus rail emergency" index="1" length="7.644506528383624" shape="34.81275,53.0955 38.22825,59.94785" speed="36.11111111111111" width="2.998011102381041"/>
		<lane allow="moped bicycle pedestrian custom1 trailer evehicle rail_urban ship private truck vip custom2 authority delivery rail_electric taxi tram army hov coach motorcycle passenger bus rail emergency" index="2" length="7.644506528383624" shape="32.1488,54.39515 35.55075,61.3224" speed="36.11111111111111" width="2.9350875710956243"/>
	</edge>
	<edge from="14" function="normal" id="3636" length="10.130444963203734" numLanes="2" priority="1" speed="36.11111111111111" spreadType="center" to="19">
		<lane allow="moped bicycle pedestrian custom1 trailer evehicle rail_urban ship private truck vip custom2 authority delivery rail_electric taxi tram army hov coach motorcycle passenger bus rail emergency" index="0" length="10.130444963203734" shape="-19.323050000000002,11.44095 -10.31195,6.755599999999999" speed="36.11111111111111" width="3.232186618993403"/>
		<lane allow="moped bicycle pedestrian custom1 trailer evehicle rail_urban ship private truck vip custom2 authority delivery rail_electric taxi tram army hov coach motorcycle passenger bus rail emergency" index="1" length="10.130444963203734" shape="-17.892249999999997,14.22155 -8.867550000000001,9.619299999999999" speed="36.11111111111111" width="3.0254656269738045"/>
	</edge>
	<edge from="19" function="normal" id="3658" length="24.83401336288985" numLanes="2" priority="1" speed="36.11111111111111" spreadType="center" to="20">
		<lane allow="moped bicycle pedestrian custom1 trailer evehicle rail_urban ship private truck vip custom2 authority delivery rail_electric taxi tram army hov coach motorcycle passenger bus rail emergency" index="0" length="24.83401336288985" shape="-10.31195,6.755599999999999 -7.41615,5.2497 -4.76065,3.86895 -2.0437000000000003,2.45625 0.9446,0.9023499999999999 3.6462499999999998,-0.50255 6.29095,-1.8777 9.006499999999999,-3.2897 11.77825,-4.73095" speed="36.11111111111111" width="3.30890878840744"/>
		<lane allow="moped bicycle pedestrian custom1 trailer evehicle rail_urban ship private truck vip custom2 authority delivery rail_electric taxi tram army hov coach motorcycle passenger bus rail emergency" index="1" length="24.83401336288985" shape="-8.867550000000001,9.619299999999999 -5.99955,8.1567 -3.32855,6.79465 -0.5902499999999999,5.3983 2.37435,3.8865499999999997 5.0847999999999995,2.5042999999999997 7.73475,1.1530500000000001 10.4692,-0.24125000000000008 13.256,-1.6623999999999999" speed="36.11111111111111" width="3.1057834261261696"/>
	</edge>
	<edge from="20" function="normal" id="3676" length="16.155928389455166" numLanes="2" priority="1" speed="36.11111111111111" spreadType="center" to="5">
		<lane allow="moped bicycle pedestrian custom1 trailer evehicle rail_urban ship private truck vip custom2 authority delivery rail_electric taxi tram army hov coach motorcycle passenger bus rail emergency" index="0" length="16.155928389455166" shape="11.77825,-4.73095 17.79795,-7.7372 26.232,-11.949200000000001" speed="36.11111111111111" width="3.5034549033775213"/>
		<lane allow="moped bicycle pedestrian custom1 trailer evehicle rail_urban ship private truck vip custom2 authority delivery rail_electric taxi tram army hov coach motorcycle passenger bus rail emergency" index="1" length="16.155928389455166" shape="13.256,-1.6623999999999999 19.28065,-4.6477 27.77685,-8.8576" speed="36.11111111111111" width="3.308224526842155"/>
	</edge>
	<edge from="14" function="normal" id="3600" length="24.19746751136553" numLanes="1" priority="1" speed="36.11111111111111" spreadType="center" to="9">
		<lane allow="moped bicycle pedestrian custom1 trailer evehicle rail_urban ship private vip custom2 authority delivery rail_electric taxi tram army hov coach motorcycle passenger rail emergency" index="0" length="24.19746751136553" shape="-19.323050000000002,11.44095 -14.83475,9.046 -12.841750000000001,7.8559 -11.238700000000001,6.9453000000000005 -10.4956,6.46535 -10.0715,5.87775 -10.0357,5.0708 -10.4429,3.6592000000000002 -11.2438,1.69305 -12.22425,-0.4053 -15.017149999999999,-6.4072499999999994" speed="36.11111111111111" width="3.232186618993403"/>
	</edge>
	<edge from="21" function="normal" id="3502" length="11.539017429977408" numLanes="2" priority="1" speed="36.11111111111111" spreadType="center" to="22">
		<lane allow="moped bicycle pedestrian custom1 trailer evehicle rail_urban ship private truck vip custom2 authority delivery rail_electric taxi tram army hov coach motorcycle passenger bus rail emergency" index="0" length="11.539017429977408" shape="45.945949999999996,-6.312 40.89625,-3.8436000000000003 35.55185,-1.23105" speed="36.11111111111111" width="3.607231317783764"/>
		<lane allow="moped bicycle pedestrian custom1 trailer evehicle rail_urban ship private truck vip custom2 authority delivery rail_electric taxi tram army hov coach motorcycle passenger bus rail emergency" index="1" length="11.539017429977408" shape="44.34135,-9.57785 39.365750000000006,-7.145200000000001 33.9749,-4.5097499999999995" speed="36.11111111111111" width="3.630791497731591"/>
	</edge>
	<edge from="22" function="normal" id="3528" length="6.57557739613032" numLanes="3" priority="1" speed="36.11111111111111" spreadType="center" to="23">
		<lane allow="moped bicycle pedestrian custom1 trailer evehicle rail_urban ship private truck vip custom2 authority delivery rail_electric taxi tram army hov coach motorcycle passenger bus rail emergency" index="0" length="6.57557739613032" shape="35.55185,-1.23105 31.129,4.7908" speed="36.11111111111111" width="3.2457372413675145"/>
		<lane allow="moped bicycle pedestrian custom1 trailer evehicle rail_urban ship private truck vip custom2 authority delivery rail_electric taxi tram army hov coach motorcycle passenger bus rail emergency" index="1" length="6.57557739613032" shape="35.55185,-1.23105 29.639850000000003,1.70895" speed="36.11111111111111" width="3.6024336135451547"/>
		<lane allow="moped bicycle pedestrian custom1 trailer evehicle rail_urban ship private truck vip custom2 authority delivery rail_electric taxi tram army hov coach motorcycle passenger bus rail emergency" index="2" length="6.57557739613032" shape="33.9749,-4.5097499999999995 28.08685,-1.5824500000000001" speed="36.11111111111111" width="3.6713079753679083"/>
	</edge>
	<edge from="23" function="normal" id="3534" length="6.6083636571393365" numLanes="3" priority="1" speed="36.11111111111111" spreadType="center" to="24">
		<lane allow="moped bicycle pedestrian custom1 trailer evehicle rail_urban ship private truck vip custom2 authority delivery rail_electric taxi tram army hov coach motorcycle passenger bus rail emergency" index="0" length="6.6083636571393365" shape="31.129,4.7908 25.14945,7.680250000000001" speed="36.11111111111111" width="3.1901671962453637"/>
		<lane allow="moped bicycle pedestrian custom1 trailer evehicle rail_urban ship private truck vip custom2 authority delivery rail_electric taxi tram army hov coach motorcycle passenger bus rail emergency" index="1" length="6.6083636571393365" shape="29.639850000000003,1.70895 23.6997,4.6537" speed="36.11111111111111" width="3.521568769738852"/>
		<lane allow="moped bicycle pedestrian custom1 trailer evehicle rail_urban ship private truck vip custom2 authority delivery rail_electric taxi tram army hov coach motorcycle passenger bus rail emergency" index="2" length="6.6083636571393365" shape="28.08685,-1.5824500000000001 22.1768,1.3741999999999999" speed="36.11111111111111" width="3.6773714878973003"/>
	</edge>
	<edge from="24" function="normal" id="3620" length="6.669397413559938" numLanes="2" priority="1" speed="36.11111111111111" spreadType="center" to="25">