<!-- generated on 2020-12-18 16:01:55.153294 by ipykernel_launcher.py v1_2_0+5214-53edc58fcd
-->
<nodes>
	<node id="1" type="from" x="27.438939999999995" y="65.4867"/>
	<node id="2" type="to" x="23.97195" y="58.50126"/>
	<node id="3" type="to" x="18.79779166666667" y="51.58568333333333"/>
	<node id="4" type="to" x="7.801575" y="29.48970833333333"/>
	<node id="5" type="to" x="27.004424999999998" y="-10.403400000000001"/>
	<node id="6" type="to" x="39.84141666666667" y="-18.736483333333336"/>
	<node id="7" type="to" x="0.4695000000000001" y="17.967766666666666"/>
	<node id="8" type="to" x="-6.8568" y="3.073583333333333"/>
	<node id="9" type="to" x="-12.2387" y="-7.865666666666667"/>
	<node id="10" type="to" x="-29.221233333333334" y="-46.39426666666666"/>
	<node id="11" type="to" x="-12.482" y="27.81835"/>
	<node id="12" type="to" x="-33.19488333333333" y="34.327866666666665"/>
	<node id="13" type="from" x="-38.257533333333335" y="24.319483333333334"/>
	<node id="14" type="to" x="-17.9336" y="14.214433333333332"/>
	<node id="15" type="to" x="17.319650000000003" y="24.688299999999998"/>
	<node id="16" type="to" x="31.020300000000002" y="45.47771666666667"/>
	<node id="17" type="to" x="34.83298333333334" y="53.067033333333335"/>
	<node id="18" type="to" x="38.23593333333333" y="59.94391666666667"/>
	<node id="19" type="to" x="-9.58975" y="8.187449999999998"/>
	<node id="20" type="to" x="12.517125" y="-3.196675"/>
	<node id="21" type="from" x="45.143649999999994" y="-7.944925"/>
	<node id="22" type="to" x="34.763374999999996" y="-2.8703999999999996"/>
	<node id="23" type="to" x="29.618566666666666" y="1.6390999999999998"/>
	<node id="24" type="to" x="23.675316666666664" y="4.569383333333334"/>
	<node id="25" type="to" x="16.945775" y="5.999549999999999"/>
	<node id="26" type="to" x="-5.1416" y="17.00545"/>
	<node id="27" type="from" x="-16.84166" y="-52.49404"/>
	<node id="28" type="to" x="1.7717000000000003" y="-15.232560000000001"/>
	<node id="29" type="to" x="6.921183333333334" y="-4.158633333333333"/>
	<node id="30" type="to" x="14.2812" y="11.216866666666666"/>
</nodes>
