<?xml version="1.0" encoding="UTF-8"?>

<!-- generated on Fri Dec 18 16:01:55 2020 by Eclipse SUMO netconvert Version 1.8.0
<configuration xmlns:xsi="http://www.w3.org/2001/XMLSchema-instance" xsi:noNamespaceSchemaLocation="http://sumo.dlr.de/xsd/netconvertConfiguration.xsd">

    <input>
        <node-files value="./converted_scenarios/NGSIM/Lankershim/USA_Lanker-1_8_I-1-1/nodes.net.xml"/>
        <edge-files value="./converted_scenarios/NGSIM/Lankershim/USA_Lanker-1_8_I-1-1/edges.net.xml"/>
        <connection-files value="./converted_scenarios/NGSIM/Lankershim/USA_Lanker-1_8_I-1-1/_connections.net.xml"/>
        <tllogic-files value="./converted_scenarios/NGSIM/Lankershim/USA_Lanker-1_8_I-1-1/_tll.net.xml"/>
    </input>

    <output>
        <output-file value="./converted_scenarios/NGSIM/Lankershim/USA_Lanker-1_8_I-1-1/USA_Lanker-1_8_I-1-1.net.xml"/>
    </output>

    <processing>
        <plain.extend-edge-shape value="true"/>
        <geometry.remove.keep-edges.explicit value="true"/>
        <geometry.avoid-overlap value="true"/>
        <offset.disable-normalization value="true"/>
    </processing>

    <junctions>
        <no-turnarounds value="true"/>
        <junctions.internal-link-detail value="20"/>
    </junctions>

    <report>
        <aggregate-warnings value="5"/>
    </report>

    <random_number>
        <seed value="1234"/>
    </random_number>

</configuration>
-->

<net version="1.6" junctionCornerDetail="5" junctionLinkDetail="20" limitTurnSpeed="5.50" xmlns:xsi="http://www.w3.org/2001/XMLSchema-instance" xsi:noNamespaceSchemaLocation="http://sumo.dlr.de/xsd/net_file.xsd">

    <location netOffset="0.00,0.00" convBoundary="-38.26,-52.49,45.14,65.49" origBoundary="-39.66,-55.22,45.95,68.24" projParameter="!"/>

    <edge id=":11_0" function="internal">
        <lane id=":11_0_0" index="0" disallow="bus truck rail_fast" speed="36.11" length="8.30" width="4.58" shape="-19.59,30.13 -11.74,27.46"/>
    </edge>
    <edge id=":11_1" function="internal">
        <lane id=":11_1_0" index="0" disallow="rail_fast" speed="36.11" length="1.01" width="3.11" shape="-12.65,22.60 -13.58,23.03"/>
        <lane id=":11_1_1" index="1" disallow="rail_fast" speed="36.11" length="1.01" width="3.66" shape="-13.97,19.46 -14.88,19.89"/>
    </edge>
    <edge id=":14_0" function="internal">
        <lane id=":14_0_0" index="0" disallow="bus truck rail_fast" speed="7.94" length="13.70" width="3.23" shape="-21.00,12.27 -19.78,11.66 -18.63,11.08 -17.55,10.51 -16.53,9.98 -15.59,9.47 -14.72,8.98 -13.92,8.52 -13.18,8.09 -12.52,7.68 -11.92,7.29 -11.40,6.94 -10.95,6.60 -10.56,6.29 -10.24,6.01 -10.00,5.75 -9.82,5.52 -9.71,5.32 -9.68,5.13 -9.71,4.98"/>
    </edge>
    <edge id=":14_1" function="internal">
        <lane id=":14_1_0" index="0" disallow="rail_fast" speed="36.11" length="13.45" width="3.23" shape="-21.00,12.27 -9.07,6.11"/>
        <lane id=":14_1_1" index="1" disallow="bus rail_fast" speed="36.11" length="13.45" width="3.03" shape="-19.61,15.08 -7.60,8.97"/>
    </edge>
    <edge id=":14_3" function="internal">
        <lane id=":14_3_0" index="0" disallow="bus truck rail_fast" speed="36.11" length="2.11" width="2.92" shape="-18.26,17.81 -20.15,18.74"/>
    </edge>
    <edge id=":15_0" function="internal">
        <lane id=":15_0_0" index="0" disallow="bus truck rail_fast" speed="9.12" length="13.80" width="3.05" shape="22.47,9.84 22.10,10.26 21.78,10.72 21.51,11.20 21.28,11.71 21.09,12.26 20.95,12.82 20.86,13.42 20.81,14.05 20.80,14.70 20.85,15.38 20.93,16.09 21.07,16.83 21.25,17.60 21.47,18.39 21.74,19.21 22.06,20.06 22.42,20.94 22.82,21.85 23.28,22.79"/>
    </edge>
    <edge id=":15_1" function="internal">
        <lane id=":15_1_0" index="0" disallow="rail_fast" speed="36.11" length="13.06" width="3.05" shape="17.63,11.06 23.28,22.79"/>
        <lane id=":15_1_1" index="1" disallow="rail_fast" speed="36.11" length="13.06" width="2.91" shape="14.82,12.41 20.46,24.20"/>
        <lane id=":15_1_2" index="2" disallow="rail_fast" speed="36.11" length="13.06" width="2.89" shape="12.09,13.73 17.76,25.55"/>
    </edge>
    <edge id=":15_4" function="internal">
        <lane id=":15_4_0" index="0" disallow="bus truck rail_fast" speed="36.11" length="13.55" width="2.89" shape="11.24,13.67 17.76,25.55"/>
    </edge>
    <edge id=":16_0" function="internal">
        <lane id=":16_0_0" index="0" disallow="rail_fast" speed="36.11" length="0.24" width="3.05" shape="33.61,44.04 33.71,44.25"/>
        <lane id=":16_0_1" index="1" disallow="rail_fast" speed="36.11" length="0.24" width="2.91" shape="30.94,45.38 31.05,45.59"/>
        <lane id=":16_0_2" index="2" disallow="rail_fast" speed="36.11" length="0.24" width="2.89" shape="28.35,46.68 28.46,46.90"/>
    </edge>
    <edge id=":17_0" function="internal">
        <lane id=":17_0_0" index="0" disallow="rail_fast" speed="36.11" length="3.05" width="3.05" shape="36.83,50.33 38.20,53.05"/>
        <lane id=":17_0_1" index="1" disallow="rail_fast" speed="36.11" length="3.05" width="3.00" shape="34.11,51.69 35.47,54.41"/>
        <lane id=":17_0_2" index="2" disallow="rail_fast" speed="36.11" length="3.05" width="2.94" shape="31.47,53.01 32.81,55.73"/>
    </edge>
    <edge id=":19_0" function="internal">
        <lane id=":19_0_0" index="0" disallow="rail_fast" speed="36.11" length="0.12" width="3.31" shape="-8.89,6.02 -8.99,6.07"/>
        <lane id=":19_0_1" index="1" disallow="rail_fast" speed="36.11" length="0.12" width="3.11" shape="-7.42,8.88 -7.53,8.94"/>
    </edge>
    <edge id=":2_0" function="internal">
        <lane id=":2_0_0" index="0" disallow="rail_fast" speed="21.97" length="7.43" width="2.94" shape="19.72,63.58 19.47,63.08 19.23,62.63 19.01,62.24 18.80,61.88 18.60,61.56 18.40,61.27 18.21,61.01 18.02,60.76 17.82,60.53 17.62,60.31 17.40,60.10 17.18,59.88 16.93,59.65 16.67,59.42 16.38,59.16 16.07,58.88 15.73,58.57 15.35,58.23 14.95,57.85"/>
        <lane id=":2_0_1" index="1" disallow="rail_fast" speed="36.11" length="7.43" width="2.94" shape="19.72,63.58 16.41,57.02"/>
        <lane id=":2_0_2" index="2" disallow="rail_fast" speed="36.11" length="7.43" width="3.05" shape="22.39,62.23 19.06,55.52"/>
        <lane id=":2_0_3" index="3" disallow="rail_fast" speed="36.11" length="7.43" width="3.03" shape="25.12,60.85 21.71,54.01"/>
        <lane id=":2_0_4" index="4" disallow="rail_fast" speed="36.11" length="7.43" width="3.05" shape="27.85,59.48 24.37,52.50"/>
        <lane id=":2_0_5" index="5" disallow="rail_fast" speed="36.11" length="7.43" width="3.12" shape="30.59,58.09 27.60,52.02"/>
    </edge>
    <edge id=":20_0" function="internal">
        <lane id=":20_0_0" index="0" disallow="rail_fast" speed="36.11" length="3.06" width="3.50" shape="10.38,-4.00 13.11,-5.40"/>
        <lane id=":20_0_1" index="1" disallow="rail_fast" speed="36.11" length="3.06" width="3.31" shape="11.89,-0.97 14.61,-2.34"/>
    </edge>
    <edge id=":22_0" function="internal">
        <lane id=":22_0_0" index="0" disallow="rail_fast" speed="14.45" length="8.28" width="3.25" shape="39.20,-3.01 38.66,-2.75 38.17,-2.50 37.73,-2.28 37.33,-2.07 36.97,-1.87 36.64,-1.67 36.33,-1.48 36.05,-1.28 35.79,-1.08 35.54,-0.87 35.30,-0.64 35.07,-0.40 34.83,-0.13 34.58,0.16 34.32,0.48 34.04,0.84 33.74,1.24 33.42,1.68 33.06,2.16"/>
        <lane id=":22_0_1" index="1" disallow="rail_fast" speed="36.11" length="8.28" width="3.60" shape="39.20,-3.01 31.97,0.55"/>
        <lane id=":22_0_2" index="2" disallow="rail_fast" speed="36.11" length="8.28" width="3.67" shape="37.61,-6.29 29.91,-2.49"/>
    </edge>
    <edge id=":23_0" function="internal">
        <lane id=":23_0_0" index="0" disallow="rail_fast" speed="9.74" length="3.41" width="3.19" shape="31.72,3.98 31.56,4.20 31.41,4.39 31.26,4.56 31.12,4.70 30.99,4.83 30.86,4.94 30.74,5.04 30.61,5.12 30.48,5.19 30.35,5.26 30.21,5.33 30.06,5.39 29.91,5.45 29.74,5.52 29.56,5.59 29.37,5.66 29.16,5.75 28.93,5.85 28.69,5.97"/>
        <lane id=":23_0_1" index="1" disallow="rail_fast" speed="36.11" length="3.41" width="3.52" shape="30.25,1.41 27.21,2.91"/>
        <lane id=":23_0_2" index="2" disallow="rail_fast" speed="36.11" length="3.41" width="3.68" shape="28.44,-1.76 25.64,-0.36"/>
    </edge>
    <edge id=":24_0" function="internal">
        <lane id=":24_0_0" index="0" disallow="bus truck rail_fast" speed="14.27" length="3.68" width="2.93" shape="26.06,7.24 25.82,7.36 25.59,7.46 25.39,7.56 25.20,7.64 25.03,7.72 24.88,7.79 24.73,7.86 24.59,7.93 24.46,8.01 24.34,8.08 24.21,8.16 24.09,8.25 23.97,8.35 23.83,8.46 23.70,8.58 23.55,8.72 23.39,8.87 23.22,9.05 23.03,9.25"/>
    </edge>
    <edge id=":24_1" function="internal">
        <lane id=":24_1_0" index="0" disallow="rail_fast" speed="36.11" length="11.27" width="3.46" shape="24.61,4.20 14.52,9.20"/>
        <lane id=":24_1_1" index="1" disallow="rail_fast" speed="36.11" length="11.27" width="3.70" shape="23.05,0.94 12.97,5.99"/>
    </edge>
    <edge id=":24_3" function="internal">
        <lane id=":24_3_0" index="0" disallow="bus truck rail_fast" speed="17.55" length="16.88" width="3.01" shape="23.05,0.94 21.91,1.49 20.82,1.99 19.78,2.44 18.79,2.83 17.85,3.18 16.94,3.47 16.06,3.73 15.22,3.94 14.40,4.11 13.61,4.24 12.83,4.35 12.07,4.42 11.32,4.46 10.57,4.47 9.83,4.47 9.08,4.44 8.33,4.39 7.57,4.33 6.79,4.25"/>
    </edge>
    <edge id=":25_0" function="internal">
        <lane id=":25_0_0" index="0" disallow="rail_fast" speed="36.11" length="2.24" width="3.21" shape="14.34,9.28 16.35,8.29"/>
        <lane id=":25_0_1" index="1" disallow="rail_fast" speed="36.11" length="2.24" width="3.68" shape="12.79,6.08 14.78,5.08"/>
    </edge>
    <edge id=":26_0" function="internal">
        <lane id=":26_0_0" index="0" disallow="rail_fast" speed="36.11" length="14.96" width="3.17" shape="6.68,13.07 -6.73,19.70"/>
        <lane id=":26_0_1" index="1" disallow="rail_fast" speed="36.11" length="14.96" width="3.68" shape="5.11,9.93 -8.26,16.63"/>
    </edge>
    <edge id=":26_2" function="internal">
        <lane id=":26_2_0" index="0" disallow="bus truck rail_fast" speed="11.28" length="15.17" width="3.68" shape="0.58,5.05 0.42,5.87 0.22,6.66 -0.01,7.43 -0.27,8.18 -0.57,8.91 -0.90,9.61 -1.26,10.29 -1.66,10.94 -2.09,11.58 -2.56,12.19 -3.06,12.77 -3.59,13.34 -4.15,13.88 -4.75,14.39 -5.39,14.89 -6.06,15.36 -6.76,15.80 -7.49,16.23 -8.26,16.63"/>
    </edge>
    <edge id=":28_0" function="internal">
        <lane id=":28_0_0" index="0" disallow="bus truck rail_fast" speed="10.22" length="10.24" width="3.11" shape="6.57,-20.02 6.81,-19.62 7.06,-19.23 7.34,-18.85 7.65,-18.49 7.97,-18.14 8.32,-17.80 8.69,-17.48 9.08,-17.16 9.50,-16.87 9.94,-16.58 10.40,-16.31 10.88,-16.05 11.39,-15.80 11.92,-15.56 12.47,-15.34 13.04,-15.13 13.64,-14.94 14.25,-14.76 14.90,-14.59"/>
    </edge>
    <edge id=":28_1" function="internal">
        <lane id=":28_1_0" index="0" disallow="bus truck rail_fast" speed="11.58" length="11.05" width="3.13" shape="3.52,-18.42 3.88,-17.71 4.22,-17.07 4.55,-16.50 4.87,-15.99 5.19,-15.54 5.50,-15.14 5.82,-14.78 6.16,-14.46 6.50,-14.18 6.87,-13.91 7.25,-13.67 7.67,-13.45 8.12,-13.23 8.61,-13.01 9.14,-12.79 9.71,-12.56 10.34,-12.31 11.03,-12.05 11.77,-11.75"/>
    </edge>
    <edge id=":28_2" function="internal">
        <lane id=":28_2_0" index="0" disallow="rail_fast" speed="36.11" length="10.45" width="3.12" shape="3.52,-18.42 8.08,-8.86"/>
        <lane id=":28_2_1" index="1" disallow="rail_fast" speed="36.11" length="10.45" width="3.06" shape="0.78,-16.98 5.29,-7.55"/>
        <lane id=":28_2_2" index="2" disallow="rail_fast" speed="36.11" length="10.45" width="2.98" shape="-1.91,-15.56 2.55,-6.26"/>
    </edge>
    <edge id=":28_5" function="internal">
        <lane id=":28_5_0" index="0" disallow="bus truck rail_fast" speed="36.11" length="10.20" width="2.87" shape="-4.60,-14.15 -4.26,-13.47 -3.95,-12.85 -3.67,-12.29 -3.42,-11.78 -3.19,-11.31 -2.98,-10.88 -2.78,-10.48 -2.60,-10.10 -2.42,-9.72 -2.26,-9.35 -2.09,-8.97 -1.93,-8.58 -1.76,-8.17 -1.59,-7.73 -1.41,-7.25 -1.22,-6.73 -1.01,-6.15 -0.78,-5.52 -0.54,-4.81"/>
    </edge>
    <edge id=":29_0" function="internal">
        <lane id=":29_0_0" index="0" disallow="rail_fast" speed="36.11" length="3.22" width="3.12" shape="8.96,-7.00 10.35,-4.10"/>
        <lane id=":29_0_1" index="1" disallow="rail_fast" speed="36.11" length="3.22" width="3.06" shape="6.21,-5.60 7.59,-2.70"/>
        <lane id=":29_0_2" index="2" disallow="rail_fast" speed="36.11" length="3.22" width="2.95" shape="3.51,-4.24 4.90,-1.33"/>
    </edge>
    <edge id=":3_0" function="internal">
        <lane id=":3_0_0" index="0" disallow="rail_fast" speed="15.71" length="3.50" width="3.22" shape="14.56,57.49 14.36,57.31 14.17,57.14 13.98,57.00 13.82,56.88 13.66,56.77 13.50,56.68 13.36,56.59 13.22,56.50 13.09,56.42 12.97,56.34 12.84,56.25 12.72,56.15 12.61,56.04 12.49,55.92 12.37,55.78 12.25,55.62 12.13,55.43 12.00,55.22 11.88,54.98"/>
        <lane id=":3_0_1" index="1" disallow="rail_fast" speed="36.11" length="3.50" width="2.87" shape="16.22,56.64 14.70,53.62"/>
        <lane id=":3_0_2" index="2" disallow="rail_fast" speed="36.11" length="3.50" width="3.00" shape="18.92,55.25 17.45,52.29"/>
        <lane id=":3_0_3" index="3" disallow="rail_fast" speed="36.11" length="3.50" width="3.02" shape="21.63,53.85 20.18,50.94"/>
        <lane id=":3_0_4" index="4" disallow="rail_fast" speed="36.11" length="3.50" width="3.02" shape="24.33,52.41 22.90,49.56"/>
        <lane id=":3_0_5" index="5" disallow="rail_fast" speed="36.11" length="3.50" width="3.03" shape="27.51,51.84 25.69,48.15"/>
    </edge>
    <edge id=":30_0" function="internal">
        <lane id=":30_0_0" index="0" disallow="rail_fast" speed="36.11" length="2.64" width="3.14" shape="16.40,8.49 17.55,10.88"/>
        <lane id=":30_0_1" index="1" disallow="rail_fast" speed="36.11" length="2.64" width="3.10" shape="13.59,9.85 14.73,12.23"/>
        <lane id=":30_0_2" index="2" disallow="rail_fast" speed="36.11" length="2.64" width="2.93" shape="10.87,11.17 12.00,13.55"/>
    </edge>
    <edge id=":4_0" function="internal">
        <lane id=":4_0_0" index="0" disallow="bus truck rail_fast" speed="36.11" length="5.96" width="3.84" shape="2.61,36.56 2.41,36.17 2.23,35.81 2.07,35.48 1.92,35.19 1.79,34.92 1.66,34.67 1.55,34.44 1.43,34.22 1.32,34.01 1.20,33.80 1.08,33.60 0.95,33.39 0.80,33.17 0.65,32.95 0.47,32.70 0.27,32.44 0.05,32.16 -0.20,31.84 -0.48,31.50"/>
    </edge>
    <edge id=":4_1" function="internal">
        <lane id=":4_1_0" index="0" disallow="rail_fast" speed="36.11" length="6.33" width="2.87" shape="5.57,35.05 2.72,29.37"/>
        <lane id=":4_1_1" index="1" disallow="rail_fast" speed="36.11" length="6.33" width="3.02" shape="8.22,33.70 5.38,28.05"/>
        <lane id=":4_1_2" index="2" disallow="rail_fast" speed="36.11" length="6.33" width="3.12" shape="10.95,32.31 8.16,26.67"/>
    </edge>
    <edge id=":4_4" function="internal">
        <lane id=":4_4_0" index="0" disallow="bus truck rail_fast" speed="36.11" length="6.26" width="2.93" shape="13.69,30.91 10.90,25.31"/>
    </edge>
    <edge id=":4_5" function="internal">
        <lane id=":4_5_0" index="0" disallow="bus truck rail_fast" speed="36.11" length="6.22" width="3.03" shape="16.41,29.52 13.63,23.96"/>
    </edge>
    <edge id=":5_0" function="internal">
        <lane id=":5_0_0" index="0" disallow="bus truck rail_fast" speed="10.83" length="9.96" width="3.88" shape="15.75,-14.37 16.39,-14.21 16.97,-14.07 17.51,-13.95 18.00,-13.85 18.45,-13.76 18.88,-13.70 19.27,-13.66 19.66,-13.64 20.03,-13.65 20.39,-13.68 20.76,-13.74 21.13,-13.82 21.51,-13.93 21.91,-14.06 22.34,-14.23 22.80,-14.42 23.30,-14.65 23.84,-14.90 24.43,-15.19"/>
        <lane id=":5_0_1" index="1" disallow="bus truck rail_fast" speed="12.01" length="9.96" width="3.51" shape="15.62,-10.81 16.39,-10.63 17.10,-10.47 17.74,-10.33 18.33,-10.21 18.88,-10.12 19.39,-10.05 19.87,-10.01 20.33,-9.99 20.77,-10.00 21.21,-10.04 21.65,-10.11 22.10,-10.21 22.56,-10.34 23.04,-10.51 23.55,-10.71 24.11,-10.94 24.70,-11.21 25.36,-11.52 26.07,-11.87"/>
    </edge>
    <edge id=":5_2" function="internal">
        <lane id=":5_2_0" index="0" disallow="bus truck rail_fast" speed="36.11" length="10.89" width="3.51" shape="16.41,-6.77 26.07,-11.87"/>
        <lane id=":5_2_1" index="1" disallow="bus truck rail_fast" speed="36.11" length="10.89" width="3.38" shape="18.15,-3.45 18.81,-3.92 19.41,-4.33 19.96,-4.71 20.45,-5.04 20.91,-5.34 21.34,-5.61 21.74,-5.85 22.13,-6.08 22.51,-6.29 22.89,-6.49 23.28,-6.69 23.68,-6.89 24.11,-7.09 24.57,-7.31 25.06,-7.55 25.61,-7.81 26.20,-8.09 26.86,-8.41 27.59,-8.77"/>
    </edge>
    <edge id=":5_4" function="internal">
        <lane id=":5_4_0" index="0" disallow="rail_fast" speed="36.11" length="13.99" width="3.51" shape="13.54,-5.61 26.07,-11.87"/>
        <lane id=":5_4_1" index="1" disallow="rail_fast" speed="36.11" length="13.99" width="3.38" shape="15.06,-2.56 27.59,-8.77"/>
    </edge>
    <edge id=":7_0" function="internal">
        <lane id=":7_0_0" index="0" disallow="rail_fast" speed="36.11" length="3.02" width="3.06" shape="-1.59,20.67 -2.93,17.96"/>
        <lane id=":7_0_1" index="1" disallow="rail_fast" speed="36.11" length="3.02" width="2.99" shape="1.13,19.34 -0.20,16.62"/>
        <lane id=":7_0_2" index="2" disallow="rail_fast" speed="36.11" length="3.02" width="3.06" shape="3.89,17.99 2.55,15.27"/>
    </edge>
    <edge id=":8_0" function="internal">
        <lane id=":8_0_0" index="0" disallow="rail_fast" speed="36.11" length="0.10" width="3.29" shape="-8.91,5.91 -8.92,5.88"/>
        <lane id=":8_0_1" index="1" disallow="rail_fast" speed="36.11" length="0.10" width="2.97" shape="-6.13,4.48 -6.14,4.45"/>
        <lane id=":8_0_2" index="2" disallow="rail_fast" speed="36.11" length="0.10" width="3.01" shape="-3.43,3.10 -3.45,3.07"/>
    </edge>
    <edge id=":9_0" function="internal">
        <lane id=":9_0_0" index="0" disallow="bus rail_fast" speed="36.11" length="15.32" width="2.85" shape="-9.01,5.70 -15.81,-8.03"/>
        <lane id=":9_0_1" index="1" disallow="rail_fast" speed="36.11" length="15.32" width="2.97" shape="-6.23,4.27 -12.96,-9.49"/>
        <lane id=":9_0_2" index="2" disallow="rail_fast" speed="36.11" length="15.32" width="2.96" shape="-3.54,2.89 -10.29,-10.86"/>
    </edge>
    <edge id=":9_3" function="internal">
        <lane id=":9_3_0" index="0" disallow="bus truck rail_fast" speed="14.99" length="18.43" width="2.96" shape="1.00,3.19 0.29,2.87 -0.40,2.51 -1.06,2.11 -1.69,1.68 -2.31,1.20 -2.91,0.68 -3.49,0.11 -4.06,-0.50 -4.62,-1.17 -5.17,-1.88 -5.72,-2.65 -6.27,-3.47 -6.82,-4.34 -7.37,-5.27 -7.93,-6.26 -8.50,-7.32 -9.08,-8.43 -9.67,-9.61 -10.29,-10.86"/>
    </edge>
    <edge id=":9_4" function="internal">
        <lane id=":9_4_0" index="0" disallow="bus truck rail_fast" speed="36.11" length="14.16" width="2.85" shape="-9.79,4.80 -15.81,-8.03"/>
    </edge>

    <edge id="3431" from="1" to="2" priority="1" spreadType="center" length="7.75">
        <lane id="3431_0" index="0" disallow="rail_fast" speed="36.11" length="7.75" width="2.84" customShape="1" shape="22.03,68.14 19.72,63.58"/>
        <lane id="3431_1" index="1" disallow="rail_fast" speed="36.11" length="7.75" width="3.06" customShape="1" shape="24.71,66.89 22.39,62.23"/>
        <lane id="3431_2" index="2" disallow="rail_fast" speed="36.11" length="7.75" width="3.03" customShape="1" shape="27.42,65.50 25.12,60.85"/>
        <lane id="3431_3" index="3" disallow="rail_fast" speed="36.11" length="7.75" width="3.05" customShape="1" shape="30.16,64.15 27.85,59.48"/>
        <lane id="3431_4" index="4" disallow="rail_fast" speed="36.11" length="7.75" width="3.05" customShape="1" shape="32.91,62.80 30.59,58.09"/>
    </edge>
    <edge id="3438" from="2" to="3" priority="1" spreadType="center" length="8.44">
        <lane id="3438_0" index="0" disallow="rail_fast" speed="36.11" length="8.44" width="2.94" customShape="1" shape="14.95,57.85 14.56,57.49"/>
        <lane id="3438_1" index="1" disallow="rail_fast" speed="36.11" length="8.44" width="2.94" customShape="1" shape="16.41,57.02 16.22,56.64"/>
        <lane id="3438_2" index="2" disallow="rail_fast" speed="36.11" length="8.44" width="3.05" customShape="1" shape="19.06,55.52 18.92,55.25"/>
        <lane id="3438_3" index="3" disallow="rail_fast" speed="36.11" length="8.44" width="3.03" customShape="1" shape="21.71,54.01 21.63,53.85"/>
        <lane id="3438_4" index="4" disallow="rail_fast" speed="36.11" length="8.44" width="3.05" customShape="1" shape="24.37,52.50 24.33,52.41"/>
        <lane id="3438_5" index="5" disallow="rail_fast" speed="36.11" length="8.44" width="3.12" customShape="1" shape="27.60,52.02 27.51,51.84"/>
    </edge>
    <edge id="3450" from="3" to="4" priority="1" spreadType="center" length="24.49">
        <lane id="3450_0" index="0" disallow="rail_fast" speed="36.11" length="24.49" width="3.22" customShape="1" shape="11.88,54.98 8.70,48.72 4.91,41.03 2.61,36.56"/>
        <lane id="3450_1" index="1" disallow="rail_fast" speed="36.11" length="24.49" width="2.87" customShape="1" shape="14.70,53.62 11.70,47.57 7.87,39.62 5.57,35.05"/>
        <lane id="3450_2" index="2" disallow="rail_fast" speed="36.11" length="24.49" width="3.00" customShape="1" shape="17.45,52.29 14.43,46.24 10.57,38.29 8.22,33.70"/>
        <lane id="3450_3" index="3" disallow="rail_fast" speed="36.11" length="24.49" width="3.02" customShape="1" shape="20.18,50.94 17.10,44.79 13.21,36.84 10.95,32.31"/>
        <lane id="3450_4" index="4" disallow="rail_fast" speed="36.11" length="24.49" width="3.02" customShape="1" shape="22.90,49.56 19.78,43.33 15.90,35.38 13.69,30.91"/>
        <lane id="3450_5" index="5" disallow="rail_fast" speed="36.11" length="24.49" width="3.03" customShape="1" shape="25.69,48.15 22.48,41.82 18.59,33.88 16.41,29.52"/>
    </edge>
    <edge id="3456" from="15" to="16" priority="1" spreadType="center" length="24.71">
        <lane id="3456_0" index="0" disallow="rail_fast" speed="36.11" length="24.71" width="3.05" customShape="1" shape="23.28,22.79 26.44,29.12 30.30,37.04 33.61,44.04"/>
        <lane id="3456_1" index="1" disallow="rail_fast" speed="36.11" length="24.71" width="2.91" customShape="1" shape="20.46,24.20 23.88,30.89 27.56,38.46 30.94,45.38"/>
        <lane id="3456_2" index="2" disallow="rail_fast" speed="36.11" length="24.71" width="2.89" customShape="1" shape="17.76,25.55 21.25,32.45 25.04,40.15 28.35,46.68"/>
    </edge>
    <edge id="3462" from="16" to="17" priority="1" spreadType="center" length="8.47">
        <lane id="3462_0" index="0" disallow="rail_fast" speed="36.11" length="8.47" width="3.05" customShape="1" shape="33.71,44.25 36.83,50.33"/>
        <lane id="3462_1" index="1" disallow="rail_fast" speed="36.11" length="8.47" width="2.91" customShape="1" shape="31.05,45.59 34.11,51.69"/>
        <lane id="3462_2" index="2" disallow="rail_fast" speed="36.11" length="8.47" width="2.89" customShape="1" shape="28.46,46.90 31.47,53.01"/>
    </edge>
    <edge id="3470" from="17" to="18" priority="1" spreadType="center" length="7.64">
        <lane id="3470_0" index="0" disallow="rail_fast" speed="36.11" length="7.64" width="3.05" customShape="1" shape="38.20,53.05 40.95,58.60"/>
        <lane id="3470_1" index="1" disallow="rail_fast" speed="36.11" length="7.64" width="3.00" customShape="1" shape="35.47,54.41 38.23,59.95"/>
        <lane id="3470_2" index="2" disallow="rail_fast" speed="36.11" length="7.64" width="2.94" customShape="1" shape="32.81,55.73 35.55,61.32"/>
    </edge>
    <edge id="3479" from="13" to="14" priority="1" spreadType="center" length="22.65">
        <lane id="3479_0" index="0" disallow="rail_fast" speed="36.11" length="22.65" width="3.23" customShape="1" shape="-39.66,21.55 -38.51,20.98 -28.93,16.22 -21.00,12.27"/>
        <lane id="3479_1" index="1" disallow="bus rail_fast" speed="36.11" length="22.65" width="3.02" customShape="1" shape="-38.24,24.35 -37.08,23.76 -27.50,19.01 -19.61,15.08"/>
        <lane id="3479_2" index="2" disallow="bus rail_fast" speed="36.11" length="22.65" width="3.06" customShape="1" shape="-36.87,27.06 -35.68,26.45 -26.10,21.70 -18.26,17.81"/>
    </edge>
    <edge id="3487" from="11" to="12" priority="1" spreadType="center" length="21.43">
        <lane id="3487_0" index="0" disallow="rail_fast" speed="36.11" length="21.43" width="4.58" acceleration="1" customShape="1" shape="-11.74,27.46 -21.70,32.26 -30.53,37.08 -31.42,37.56"/>
        <lane id="3487_1" index="1" disallow="rail_fast" speed="36.11" length="21.43" width="3.11" customShape="1" shape="-13.58,23.03 -23.59,28.41 -32.24,33.58 -33.27,34.20"/>
        <lane id="3487_2" index="2" disallow="rail_fast" speed="36.11" length="21.43" width="3.66" customShape="1" shape="-14.88,19.89 -25.12,25.38 -33.76,30.55 -34.89,31.23"/>
    </edge>
    <edge id="3495" from="5" to="6" priority="1" spreadType="center" length="15.18">
        <lane id="3495_0" index="0" disallow="rail_fast" speed="36.11" length="15.18" width="3.88" customShape="1" shape="24.43,-15.19 33.34,-19.57 38.24,-21.99"/>
        <lane id="3495_1" index="1" disallow="rail_fast" speed="36.11" length="15.18" width="3.51" customShape="1" shape="26.07,-11.87 34.96,-16.24 39.88,-18.66"/>
        <lane id="3495_2" index="2" disallow="rail_fast" speed="36.11" length="15.18" width="3.38" customShape="1" shape="27.59,-8.77 36.46,-13.13 41.40,-15.56"/>
    </edge>
    <edge id="3502" from="21" to="22" priority="1" spreadType="center" length="11.54">
        <lane id="3502_0" index="0" disallow="rail_fast" speed="36.11" length="11.54" width="3.61" customShape="1" shape="45.95,-6.31 40.90,-3.84 39.20,-3.01"/>
        <lane id="3502_1" index="1" disallow="rail_fast" speed="36.11" length="11.54" width="3.63" customShape="1" shape="44.34,-9.58 39.37,-7.15 37.61,-6.29"/>
    </edge>
    <edge id="3528" from="22" to="23" priority="1" spreadType="center" length="6.58">
        <lane id="3528_0" index="0" disallow="rail_fast" speed="36.11" length="6.58" width="3.25" customShape="1" shape="33.06,2.16 31.72,3.98"/>
        <lane id="3528_1" index="1" disallow="rail_fast" speed="36.11" length="6.58" width="3.60" customShape="1" shape="31.97,0.55 30.25,1.41"/>
        <lane id="3528_2" index="2" disallow="rail_fast" speed="36.11" length="6.58" width="3.67" customShape="1" shape="29.91,-2.49 28.44,-1.76"/>
    </edge>
    <edge id="3534" from="23" to="24" priority="1" spreadType="center" length="6.61">
        <lane id="3534_0" index="0" disallow="rail_fast" speed="36.11" length="6.61" width="3.19" customShape="1" shape="28.69,5.97 26.06,7.24"/>
        <lane id="3534_1" index="1" disallow="rail_fast" speed="36.11" length="6.61" width="3.52" customShape="1" shape="27.21,2.91 24.61,4.20"/>
        <lane id="3534_2" index="2" disallow="rail_fast" speed="36.11" length="6.61" width="3.68" customShape="1" shape="25.64,-0.36 23.05,0.94"/>
    </edge>
    <edge id="3542" from="9" to="10" priority="1" spreadType="center" length="42.05">
        <lane id="3542_0" index="0" disallow="bus rail_fast" speed="36.11" length="42.05" width="2.85" customShape="1" shape="-15.81,-8.03 -19.18,-14.95 -23.23,-23.88 -27.00,-32.59 -30.63,-41.84 -32.03,-45.24"/>
        <lane id="3542_1" index="1" disallow="rail_fast" speed="36.11" length="42.05" width="2.97" customShape="1" shape="-12.96,-9.49 -16.42,-16.45 -20.50,-25.24 -24.24,-33.93 -27.89,-43.05 -29.24,-46.39"/>
        <lane id="3542_2" index="2" disallow="rail_fast" speed="36.11" length="42.05" width="2.96" customShape="1" shape="-10.29,-10.86 -13.75,-17.97 -17.80,-26.69 -21.57,-35.38 -25.07,-44.18 -26.40,-47.55"/>
    </edge>
    <edge id="3573" from="27" to="28" priority="1" spreadType="center" length="41.48">
        <lane id="3573_0" index="0" disallow="rail_fast" speed="36.11" length="41.48" width="3.35" customShape="1" shape="-11.30,-55.22 -9.65,-51.89 -5.39,-43.32 -0.95,-34.38 3.35,-25.92 6.57,-20.02"/>
        <lane id="3573_1" index="1" disallow="rail_fast" speed="36.11" length="41.48" width="2.88" customShape="1" shape="-14.16,-53.81 -12.42,-50.32 -8.22,-41.95 -3.69,-32.88 0.53,-24.45 3.52,-18.42"/>
        <lane id="3573_2" index="2" disallow="rail_fast" speed="36.11" length="41.48" width="3.08" customShape="1" shape="-16.88,-52.47 -15.11,-48.92 -10.91,-40.55 -6.38,-31.48 -2.16,-23.05 0.78,-16.98"/>
        <lane id="3573_3" index="3" disallow="rail_fast" speed="36.11" length="41.48" width="2.82" customShape="1" shape="-19.57,-51.15 -17.78,-47.56 -13.59,-39.19 -9.05,-30.12 -4.88,-21.65 -1.91,-15.56"/>
        <lane id="3573_4" index="4" disallow="rail_fast" speed="36.11" length="41.48" width="3.05" customShape="1" shape="-22.29,-49.82 -20.48,-46.14 -16.29,-37.76 -11.75,-28.70 -7.58,-20.22 -4.60,-14.15"/>
    </edge>
    <edge id="3600" from="14" to="9" priority="1" spreadType="center" length="24.20">
        <lane id="3600_0" index="0" disallow="bus truck rail_fast" speed="36.11" length="24.20" width="3.23" customShape="1" shape="-9.71,4.98 -9.79,4.80"/>
    </edge>
    <edge id="3602" from="24" to="15" priority="1" spreadType="center" length="16.41">
        <lane id="3602_0" index="0" disallow="bus truck rail_fast" speed="36.11" length="16.41" width="2.93" customShape="1" shape="23.03,9.25 22.47,9.84"/>
    </edge>
    <edge id="3604" from="4" to="11" priority="1" spreadType="center" length="15.84">
        <lane id="3604_0" index="0" disallow="bus truck rail_fast" speed="36.11" length="15.84" width="3.84" customShape="1" shape="-0.48,31.50 -1.48,30.26 -2.87,28.86 -4.75,27.63 -6.45,27.04 -8.24,26.85 -10.17,27.07 -19.59,30.13"/>
    </edge>
    <edge id="3610" from="4" to="7" priority="1" spreadType="center" length="13.55">
        <lane id="3610_0" index="0" disallow="rail_fast" speed="36.11" length="13.55" width="2.87" customShape="1" shape="2.72,29.37 -1.59,20.67"/>
        <lane id="3610_1" index="1" disallow="rail_fast" speed="36.11" length="13.55" width="3.02" customShape="1" shape="5.38,28.05 1.13,19.34"/>