<!-- generated on 2020-12-18 17:09:36.411539 by ipykernel_launcher.py v1_2_0+5214-53edc58fcd
-->
<nodes>
	<node id="1" type="from" x="0.0" y="17.1"/>
	<node id="2" type="to" x="40.0" y="17.1"/>
	<node id="3" type="from" x="0.0" y="20.1"/>
	<node id="4" type="to" x="40.0" y="20.1"/>
	<node id="5" type="from" x="0.9" y="23.7607"/>
	<node id="6" type="to" x="15.0" y="18.395"/>
	<node id="7" type="to" x="54.5" y="17.1"/>
	<node id="8" type="to" x="54.5" y="20.1"/>
</nodes>
