<routes>
	<vehicle depart="0.1" departLane="0" departPos="38.615035061223566" departSpeed="0.00064404437" id="39" type="bicycle">
		<route edges="20125 20003"/>
	</vehicle>
	<vehicle depart="0.1" departLane="0" departPos="44.18251400860475" departSpeed="0.0" id="32" type="passenger">
		<route edges="20125 20003"/>
	</vehicle>
	<vehicle depart="0.1" departLane="0" departPos="11.504572615266177" departSpeed="6.2909639e-05" id="33" type="passenger">
		<route edges=":38_1 20332"/>
	</vehicle>
	<vehicle depart="0.1" departLane="0" departPos="21.046703301122314" departSpeed="0.01991279" id="37" type="passenger">
		<route edges=":39_8 20003"/>
	</vehicle>
	<vehicle depart="0.1" departLane="0" departPos="2.5" departSpeed="0.00016227538" id="317" type="passenger">
		<route edges=":38_1 20332"/>
	</vehicle>
	<vehicle depart="0.1" departLane="0" departPos="67.24005498779572" departSpeed="0.00064429421" id="318" type="passenger">
		<route edges="20142 20332"/>
	</vehicle>
	<vehicle depart="0.1" departLane="0" departPos="14.763468911014785" departSpeed="7.9040856" id="329" type="passenger">
		<route edges=":39_1 20126 19886"/>
	</vehicle>
	<vehicle depart="0.1" departLane="0" departPos="63.79492377140719" departSpeed="5.764801" id="345" type="passenger">
		<route edges="20002 20331"/>
	</vehicle>
	<vehicle depart="0.1" departLane="0" departPos="11.803522046925893" departSpeed="0.2982155" id="34" type="motorcycle">
		<route edges=":39_8 20003"/>
	</vehicle>
	<vehicle depart="0.1" departLane="0" departPos="21.4361621151223" departSpeed="6.2810493e-05" id="30" type="truck">
		<route edges=":38_1 20332"/>
	</vehicle>
</routes>
