<!-- generated on Tue Feb  9 22:13:10 2021 by Eclipse SUMO netconvert Version 1.8.0
<configuration xmlns:xsi="http://www.w3.org/2001/XMLSchema-instance" xsi:noNamespaceSchemaLocation="http://sumo.dlr.de/xsd/netconvertConfiguration.xsd">

    <input>
        <node-files value="./converted_scenarios/scenario-factory/HRV_Pula-15_1_I-1-1/HRV_Pula-15_1_I-1-1.nod.xml"/>
        <edge-files value="./converted_scenarios/scenario-factory/HRV_Pula-15_1_I-1-1/HRV_Pula-15_1_I-1-1.edg.xml"/>
        <connection-files value="./converted_scenarios/scenario-factory/HRV_Pula-15_1_I-1-1/HRV_Pula-15_1_I-1-1.con.xml"/>
        <tllogic-files value="./converted_scenarios/scenario-factory/HRV_Pula-15_1_I-1-1/HRV_Pula-15_1_I-1-1.tll.xml"/>
        <type-files value="/home/zen/commonroad-interactive-benchmarks/install/commonroad-map-tool/crmapconverter/sumo_map/templates/DEU.typ.xml"/>
    </input>

    <output>
        <output-file value="./converted_scenarios/scenario-factory/HRV_Pula-15_1_I-1-1/HRV_Pula-15_1_I-1-1.net.xml"/>
    </output>

    <processing>
        <geometry.remove.keep-edges.explicit value="true"/>
        <geometry.avoid-overlap value="true"/>
        <offset.disable-normalization value="true"/>
    </processing>

    <junctions>
        <no-turnarounds value="true"/>
        <junctions.internal-link-detail value="20"/>
    </junctions>

    <report>
        <aggregate-warnings value="5"/>
    </report>

    <random_number>
        <seed value="1234"/>
    </random_number>

</configuration>
--><net xmlns:xsi="http://www.w3.org/2001/XMLSchema-instance" version="1.6" junctionCornerDetail="5" junctionLinkDetail="20" limitTurnSpeed="5.50" xsi:noNamespaceSchemaLocation="http://sumo.dlr.de/xsd/net_file.xsd">

    <location netOffset="0.00,0.00" convBoundary="-710.80,-1024.79,-469.94,-799.57" origBoundary="-710.80,-1024.79,-469.94,-799.57" projParameter="!"/>

    <type id="highway.bridleway" priority="1" speed="2.78" allow="pedestrian" oneway="1" width="2.00"/>
    <type id="highway.bus_guideway" priority="1" speed="27.78" allow="bus" oneway="1"/>
    <type id="highway.cycleway" priority="1" speed="8.33" allow="bicycle" oneway="0" width="1.00"/>
    <type id="highway.footway" priority="1" speed="2.78" allow="pedestrian" oneway="1" width="2.00"/>
    <type id="highway.ford" priority="1" speed="2.78" allow="army" oneway="0"/>
    <type id="highway.living_street" priority="2" speed="2.78" disallow="tram rail_urban rail rail_electric rail_fast ship" oneway="0"/>
    <type id="highway.motorway" priority="14" speed="39.44" allow="private emergency authority army vip passenger hov taxi bus coach delivery truck trailer motorcycle evehicle custom1 custom2" oneway="1"/>
    <type id="highway.motorway_link" priority="9" speed="22.22" allow="private emergency authority army vip passenger hov taxi bus coach delivery truck trailer motorcycle evehicle custom1 custom2" oneway="1"/>
    <type id="highway.path" priority="1" speed="2.78" allow="pedestrian bicycle" oneway="0" width="2.00"/>
    <type id="highway.pedestrian" priority="1" speed="2.78" allow="pedestrian" oneway="1" width="2.00"/>
    <type id="highway.primary" priority="12" speed="27.78" disallow="pedestrian tram rail_urban rail rail_electric rail_fast ship" oneway="0"/>
    <type id="highway.primary_link" priority="7" speed="22.22" disallow="pedestrian tram rail_urban rail rail_electric rail_fast ship" oneway="0"/>
    <type id="highway.raceway" priority="15" speed="83.33" allow="vip" oneway="0"/>
    <type id="highway.residential" priority="3" speed="13.89" disallow="pedestrian tram rail_urban rail rail_electric rail_fast ship" oneway="0"/>
    <type id="highway.secondary" priority="11" speed="27.78" disallow="pedestrian tram rail_urban rail rail_electric rail_fast ship" oneway="0"/>
    <type id="highway.secondary_link" priority="6" speed="22.22" disallow="pedestrian tram rail_urban rail rail_electric rail_fast ship" oneway="0"/>
    <type id="highway.service" priority="1" speed="5.56" allow="pedestrian delivery bicycle" oneway="0"/>
    <type id="highway.stairs" priority="1" speed="1.39" allow="pedestrian" oneway="1" width="2.00"/>
    <type id="highway.step" priority="1" speed="1.39" allow="pedestrian" oneway="1" width="2.00"/>
    <type id="highway.steps" priority="1" speed="1.39" allow="pedestrian" oneway="1" width="2.00"/>
    <type id="highway.tertiary" priority="10" speed="22.22" disallow="pedestrian tram rail_urban rail rail_electric rail_fast ship" oneway="0"/>
    <type id="highway.tertiary_link" priority="5" speed="22.22" disallow="pedestrian tram rail_urban rail rail_electric rail_fast ship" oneway="0"/>
    <type id="highway.track" priority="1" speed="5.56" allow="pedestrian motorcycle moped bicycle" oneway="0"/>
    <type id="highway.trunk" priority="13" speed="27.78" disallow="pedestrian bicycle tram rail_urban rail rail_electric rail_fast ship" oneway="0"/>
    <type id="highway.trunk_link" priority="8" speed="22.22" disallow="pedestrian bicycle tram rail_urban rail rail_electric rail_fast ship" oneway="0"/>
    <type id="highway.unclassified" priority="4" speed="13.89" disallow="pedestrian tram rail_urban rail rail_electric rail_fast ship" oneway="0"/>
    <type id="highway.unsurfaced" priority="1" speed="8.33" disallow="tram rail_urban rail rail_electric rail_fast ship" oneway="0"/>
    <type id="railway.highspeed" priority="21" speed="69.44" allow="rail_fast" oneway="1"/>
    <type id="railway.light_rail" priority="19" speed="27.78" allow="rail_urban" oneway="1"/>
    <type id="railway.preserved" priority="16" speed="27.78" allow="rail" oneway="1"/>
    <type id="railway.rail" priority="20" speed="44.44" allow="rail" oneway="1"/>
    <type id="railway.subway" priority="18" speed="27.78" allow="rail_urban" oneway="1"/>
    <type id="railway.tram" priority="17" speed="13.89" allow="tram" oneway="1"/>

    <edge id=":37_0" function="internal">
        <lane id=":37_0_0" index="0" disallow="pedestrian tram rail_urban rail rail_electric rail_fast ship" speed="10.96" length="35.29" width="3.50" shape="-557.17,-892.88 -559.38,-895.80 -561.77,-898.56 -563.50,-900.27 -565.36,-901.84 -567.37,-903.20 -568.44,-903.78 -569.56,-904.27 -570.72,-904.64 -571.91,-904.88 -573.12,-904.97 -574.33,-904.90 -575.53,-904.67 -576.68,-904.28 -577.78,-903.76 -578.81,-903.12 -579.79,-902.40 -581.55,-900.72 -583.11,-898.86 -584.51,-896.86"/>
    </edge>
    <edge id=":37_1" function="internal">
        <lane id=":37_1_0" index="0" disallow="pedestrian tram rail_urban rail rail_electric rail_fast ship" speed="17.91" length="50.17" width="3.50" shape="-540.01,-912.94 -545.21,-913.45 -549.39,-913.61 -553.57,-913.51 -557.73,-913.12 -560.82,-912.61 -563.88,-911.89 -566.86,-910.94 -569.77,-909.76 -572.56,-908.33 -575.20,-906.65 -577.68,-904.73 -579.97,-902.59 -582.05,-900.25 -583.93,-897.73 -584.51,-896.86"/>
    </edge>
    <edge id=":37_2" function="internal">
        <lane id=":37_2_0" index="0" disallow="pedestrian tram rail_urban rail rail_electric rail_fast ship" speed="23.91" length="62.96" width="3.50" shape="-582.76,-957.85 -580.68,-950.53 -579.21,-944.18 -578.07,-937.77 -577.43,-932.39 -577.11,-926.97 -577.17,-921.54 -577.52,-917.22 -578.19,-912.93 -579.20,-908.71 -580.20,-905.61 -581.42,-902.59 -582.85,-899.67 -584.51,-896.86"/>
    </edge>
    <edge id=":37_3" function="internal">
        <lane id=":37_3_0" index="0" disallow="pedestrian tram rail_urban rail rail_electric rail_fast ship" speed="15.69" length="56.80" width="3.50" shape="-605.42,-942.78 -600.47,-939.28 -595.73,-935.53 -592.15,-932.29 -588.80,-928.81 -586.50,-926.00 -584.45,-923.01 -582.72,-919.83 -581.78,-917.60 -581.06,-915.30 -580.58,-912.93 -580.37,-910.53 -580.43,-908.11 -580.77,-905.72 -581.38,-903.38 -582.22,-901.12 -583.28,-898.94 -584.51,-896.86"/>
    </edge>
    <edge id=":37_4" function="internal">
        <lane id=":37_4_0" index="0" disallow="pedestrian tram rail_urban rail rail_electric rail_fast ship" speed="14.93" length="51.32" width="3.50" shape="-587.45,-898.75 -586.36,-900.61 -585.44,-902.54 -584.71,-904.53 -584.21,-906.57 -583.95,-908.65 -583.94,-910.74 -584.17,-912.82 -584.64,-914.88 -585.32,-916.90 -586.19,-918.85 -587.80,-921.70 -589.70,-924.38 -591.83,-926.92 -594.95,-930.12 -598.29,-933.11 -602.73,-936.60 -607.37,-939.87"/>
    </edge>
    <edge id=":37_5" function="internal">
        <lane id=":37_5_0" index="0" disallow="pedestrian tram rail_urban rail rail_electric rail_fast ship" speed="23.33" length="59.92" width="3.50" shape="-587.45,-898.75 -585.91,-901.37 -584.57,-904.11 -583.44,-906.94 -582.51,-909.84 -581.58,-913.83 -580.96,-917.89 -580.65,-921.99 -580.61,-927.16 -580.94,-932.33 -581.57,-937.49 -582.67,-943.65 -584.10,-949.75 -586.10,-956.82"/>
    </edge>
    <edge id=":37_6" function="internal">
        <lane id=":37_6_0" index="0" disallow="pedestrian tram rail_urban rail rail_electric rail_fast ship" speed="18.60" length="54.14" width="3.50" shape="-587.45,-898.75 -586.81,-899.72 -584.79,-902.43 -582.53,-904.99 -580.04,-907.33 -577.35,-909.44 -574.47,-911.29 -571.44,-912.86 -568.29,-914.17 -565.06,-915.21 -561.77,-916.00 -558.44,-916.56 -553.99,-917.00 -549.53,-917.11 -545.08,-916.95 -539.55,-916.41"/>
    </edge>
    <edge id=":37_7" function="internal">
        <lane id=":37_7_0" index="0" disallow="pedestrian tram rail_urban rail rail_electric rail_fast ship" speed="11.98" length="42.40" width="3.40" shape="-587.45,-898.75 -585.84,-901.07 -584.01,-903.28 -581.94,-905.28 -580.74,-906.21 -579.47,-907.02 -578.10,-907.72 -576.63,-908.25 -575.10,-908.61 -573.53,-908.75 -571.96,-908.69 -570.43,-908.43 -568.95,-908.00 -567.55,-907.43 -566.21,-906.74 -563.80,-905.16 -561.60,-903.34 -559.58,-901.36 -556.84,-898.23 -554.33,-894.93"/>
    </edge>
    <edge id=":38_0" function="internal">
        <lane id=":38_0_0" index="0" disallow="pedestrian tram rail_urban rail rail_electric rail_fast ship" speed="36.11" length="35.74" width="3.50" shape="-637.47,-853.87 -644.14,-858.05 -667.57,-873.14"/>
    </edge>
    <edge id=":38_1" function="internal">
        <lane id=":38_1_0" index="0" disallow="pedestrian tram rail_urban rail rail_electric rail_fast ship" speed="8.62" length="6.96" width="3.48" shape="-638.57,-862.99 -637.80,-860.32 -637.05,-858.41 -636.52,-857.53 -635.65,-856.86"/>
    </edge>
    <edge id=":38_2" function="internal">
        <lane id=":38_2_0" index="0" disallow="pedestrian tram rail_urban rail rail_electric rail_fast ship" speed="10.75" length="42.37" width="3.50" shape="-642.88,-883.90 -642.32,-879.94 -642.11,-876.74 -642.22,-873.55 -642.62,-871.18 -643.12,-869.66 -643.87,-868.25 -644.36,-867.62 -644.92,-867.05 -645.55,-866.56 -646.25,-866.17 -647.76,-865.67 -649.35,-865.50 -650.95,-865.59 -653.30,-866.05 -656.34,-867.06 -659.98,-868.70 -664.18,-871.02 -667.57,-873.14"/>
    </edge>
    <edge id=":38_3" function="internal">
        <lane id=":38_3_0" index="0" disallow="pedestrian tram rail_urban rail rail_electric rail_fast ship" speed="36.11" length="35.65" width="3.48" shape="-665.67,-876.08 -642.27,-861.01 -635.65,-856.86"/>
    </edge>
    <edge id=":39_0" function="internal">
        <lane id=":39_0_0" index="0" disallow="pedestrian tram rail_urban rail rail_electric rail_fast ship" speed="36.11" length="37.18" width="3.50" shape="-607.11,-833.07 -608.78,-834.33 -617.11,-840.42 -626.49,-846.82 -637.78,-854.06"/>
    </edge>
    <edge id=":39_1" function="internal">
        <lane id=":39_1_0" index="0" disallow="pedestrian tram rail_urban rail rail_electric rail_fast ship" speed="12.31" length="33.46" width="3.50" shape="-607.12,-833.07 -610.08,-835.60 -611.84,-837.47 -613.41,-839.51 -614.71,-841.73 -615.68,-844.11 -616.02,-845.35 -616.25,-846.61 -616.39,-847.89 -616.41,-849.18 -616.17,-851.74 -615.57,-854.24 -614.68,-856.65 -613.55,-858.96 -611.53,-862.24"/>
    </edge>
    <edge id=":39_2" function="internal">
        <lane id=":39_2_0" index="0" disallow="pedestrian tram rail_urban rail rail_electric rail_fast ship" speed="11.31" length="28.09" width="3.50" shape="-608.63,-860.29 -610.41,-857.39 -611.37,-855.43 -612.13,-853.39 -612.63,-851.32 -612.83,-849.19 -612.81,-848.18 -612.70,-847.15 -612.51,-846.13 -612.25,-845.16 -611.46,-843.18 -610.38,-841.35 -609.06,-839.64 -607.56,-838.05 -605.00,-835.86"/>
    </edge>
    <edge id=":39_3" function="internal">
        <lane id=":39_3_0" index="0" disallow="pedestrian tram rail_urban rail rail_electric rail_fast ship" speed="12.30" length="33.75" width="3.50" shape="-608.63,-860.28 -610.94,-857.27 -612.70,-855.41 -614.65,-853.72 -616.82,-852.25 -619.17,-851.10 -620.46,-850.65 -621.76,-850.31 -623.08,-850.08 -624.45,-849.96 -627.06,-850.04 -629.65,-850.49 -632.12,-851.25 -634.49,-852.25 -637.78,-854.06"/>
    </edge>
    <edge id=":39_4" function="internal">
        <lane id=":39_4_0" index="0" disallow="pedestrian tram rail_urban rail rail_electric rail_fast ship" speed="11.35" length="28.32" width="3.50" shape="-635.94,-857.04 -633.08,-855.46 -631.07,-854.61 -628.99,-853.98 -626.84,-853.60 -624.66,-853.54 -623.58,-853.63 -622.50,-853.82 -621.45,-854.10 -620.42,-854.46 -618.46,-855.41 -616.66,-856.64 -615.01,-858.07 -613.52,-859.65 -611.53,-862.24"/>
    </edge>
    <edge id=":39_5" function="internal">
        <lane id=":39_5_0" index="0" disallow="pedestrian tram rail_urban rail rail_electric rail_fast ship" speed="36.11" length="37.51" width="3.50" shape="-635.94,-857.04 -624.55,-849.73 -615.08,-843.27 -606.67,-837.13 -605.00,-835.86"/>
    </edge>
    <edge id=":39_6" function="internal">
        <lane id=":39_6_0" index="0" disallow="pedestrian tram rail_urban rail rail_electric rail_fast ship" speed="9.86" length="31.21" width="3.50" shape="-637.04,-831.60 -633.95,-833.35 -631.64,-835.00 -630.07,-836.44 -628.74,-838.11 -628.07,-839.36 -627.65,-840.71 -627.52,-842.12 -627.71,-843.53 -628.17,-844.87 -629.22,-846.72 -630.56,-848.38 -632.61,-850.34 -635.42,-852.50 -637.78,-854.06"/>
    </edge>
    <edge id=":39_7" function="internal">
        <lane id=":39_7_0" index="0" disallow="pedestrian tram rail_urban rail rail_electric rail_fast ship" speed="23.61" length="24.42" width="3.50" shape="-626.01,-842.58 -625.31,-843.42 -619.46,-851.08 -611.81,-861.83 -611.53,-862.24"/>
    </edge>
    <edge id=":39_8" function="internal">
        <lane id=":39_8_0" index="0" disallow="pedestrian tram rail_urban rail rail_electric rail_fast ship" speed="11.25" length="19.01" width="3.50" shape="-623.27,-837.22 -622.32,-837.51 -618.70,-838.30 -615.54,-838.64 -612.89,-838.63 -610.27,-838.27 -608.24,-837.66 -606.33,-836.75 -605.00,-835.86"/>
    </edge>

    <edge id="19746" from="36" to="37" priority="3" type="highway.residential" spreadType="center" length="70.01" shape="-603.23,-1024.79 -572.78,-921.48">
        <lane id="19746_0" index="0" disallow="pedestrian tram rail_urban rail rail_electric rail_fast ship" speed="36.11" length="70.01" width="3.50" customShape="1" shape="-603.23,-1024.79 -582.76,-957.84"/>
    </edge>
    <edge id="19747" from="37" to="28" priority="3" type="highway.residential" spreadType="center" length="70.00" shape="-576.14,-920.49 -606.58,-1023.76">
        <lane id="19747_0" index="0" disallow="pedestrian tram rail_urban rail rail_electric rail_fast ship" speed="36.11" length="70.00" width="3.50" customShape="1" shape="-586.10,-956.82 -606.58,-1023.76"/>
    </edge>
    <edge id="19769" from="37" to="25" priority="3" type="highway.residential" spreadType="center" length="70.00" shape="-575.40,-919.53 -665.53,-978.83">
        <lane id="19769_0" index="0" disallow="pedestrian tram rail_urban rail rail_electric rail_fast ship" speed="36.11" length="70.00" width="3.50" customShape="1" shape="-607.37,-939.87 -648.02,-967.10 -665.53,-978.83"/>
    </edge>
    <edge id="19770" from="34" to="37" priority="3" type="highway.residential" spreadType="center" length="70.00" shape="-663.57,-981.73 -573.48,-922.46">
        <lane id="19770_0" index="0" disallow="pedestrian tram rail_urban rail rail_electric rail_fast ship" speed="36.11" length="70.00" width="3.50" customShape="1" shape="-663.57,-981.73 -646.07,-970.00 -605.41,-942.77"/>
    </edge>
    <edge id="19772" from="33" to="37" priority="3" type="highway.residential" spreadType="center" length="70.03" shape="-470.40,-906.14 -574.71,-919.28">
        <lane id="19772_0" index="0" disallow="pedestrian tram rail_urban rail rail_electric rail_fast ship" speed="36.11" length="70.03" width="3.50" customShape="1" shape="-470.40,-906.14 -472.44,-906.22 -489.54,-907.02 -503.09,-908.02 -512.60,-909.04 -527.05,-911.12 -540.04,-912.95"/>
    </edge>
    <edge id="19773" from="37" to="26" priority="3" type="highway.residential" spreadType="center" length="70.00" shape="-574.28,-922.75 -469.94,-909.62">
        <lane id="19773_0" index="0" disallow="pedestrian tram rail_urban rail rail_electric rail_fast ship" speed="36.11" length="70.00" width="3.50" customShape="1" shape="-539.55,-916.41 -526.59,-914.59 -512.18,-912.52 -502.74,-911.50 -489.25,-910.51 -472.20,-909.71 -469.94,-909.62"/>
    </edge>
    <edge id="19885" from="35" to="37" priority="3" type="highway.residential" spreadType="center" length="5.29" shape="-554.07,-888.60 -575.95,-920.08">
        <lane id="19885_0" index="0" disallow="pedestrian tram rail_urban rail rail_electric rail_fast ship" speed="36.11" length="5.29" width="3.50" customShape="1" shape="-554.07,-888.60 -557.00,-892.65 -557.10,-892.79 -557.17,-892.89"/>
    </edge>
    <edge id="19886" from="37" to="27" priority="3" type="highway.residential" spreadType="center" length="5.26" shape="-573.11,-922.04 -551.28,-890.65">
        <lane id="19886_0" index="0" disallow="pedestrian tram rail_urban rail rail_electric rail_fast ship" speed="36.11" length="5.26" width="3.40" customShape="1" shape="-554.33,-894.93 -554.26,-894.83 -554.18,-894.72 -551.28,-890.65"/>
    </edge>
    <edge id="20002" from="22" to="39" priority="3" type="highway.residential" spreadType="center" length="70.00" shape="-546.40,-799.57 -621.39,-846.27">
        <lane id="20002_0" index="0" disallow="pedestrian tram rail_urban rail rail_electric rail_fast ship" speed="36.11" length="70.00" width="3.50" customShape="1" shape="-546.40,-799.57 -549.52,-800.46 -556.32,-802.45 -562.02,-804.52 -568.10,-807.04 -572.63,-809.28 -578.75,-812.84 -585.98,-817.49 -594.25,-823.32 -607.14,-833.09"/>
    </edge>
    <edge id="20003" from="39" to="9" priority="3" type="highway.residential" spreadType="center" length="70.00" shape="-619.55,-849.24 -544.16,-802.57">
        <lane id="20003_0" index="0" disallow="pedestrian tram rail_urban rail rail_electric rail_fast ship" speed="36.11" length="70.00" width="3.50" customShape="1" shape="-605.00,-835.86 -592.20,-826.16 -584.03,-820.39 -576.89,-815.80 -570.88,-812.31 -566.47,-810.14 -560.50,-807.69 -554.91,-805.67 -548.19,-803.72 -544.16,-802.57"/>
    </edge>
    <edge id="20067" from="21" to="39" priority="3" type="highway.residential" spreadType="center" length="84.82">
        <lane id="20067_0" index="0" disallow="pedestrian tram rail_urban rail rail_electric rail_fast ship" speed="36.11" length="84.82" width="3.50" customShape="1" shape="-704.92,-816.85 -704.81,-816.86 -689.76,-817.84 -681.76,-818.72 -672.83,-820.18 -664.46,-821.92 -656.67,-823.94 -649.47,-826.18 -644.30,-828.14 -639.27,-830.45 -623.84,-838.34"/>
    </edge>
    <edge id="20125" from="37" to="39" priority="3" type="highway.residential" spreadType="center" length="43.85" shape="-572.99,-920.08 -618.98,-846.77">
        <lane id="20125_0" index="0" disallow="pedestrian tram rail_urban rail rail_electric rail_fast ship" speed="36.11" length="43.85" width="3.50" customShape="1" shape="-584.51,-896.86 -598.50,-875.30 -608.65,-860.26"/>
    </edge>
    <edge id="20126" from="39" to="37" priority="3" type="highway.residential" spreadType="center" length="43.76" shape="-621.94,-848.63 -575.95,-921.94">
        <lane id="20126_0" index="0" disallow="pedestrian tram rail_urban rail rail_electric rail_fast ship" speed="36.11" length="43.76" width="3.50" customShape="1" shape="-611.53,-862.24 -601.41,-877.24 -587.44,-898.77"/>
    </edge>
    <edge id="20142" from="23" to="38" priority="3" type="highway.residential" spreadType="center" length="91.35">
        <lane id="20142_0" index="0" disallow="pedestrian tram rail_urban rail rail_electric rail_fast ship" speed="36.11" length="91.35" width="3.50" customShape="1" shape="-694.26,-929.13 -690.07,-926.68 -680.21,-920.54 -672.25,-915.17 -664.93,-909.79 -658.63,-904.72 -652.58,-899.37 -648.96,-895.85 -646.98,-893.55 -645.55,-891.47 -644.40,-889.23 -643.42,-886.36 -638.29,-863.05"/>
    </edge>
    <edge id="20328" from="38" to="15" priority="3" type="highway.residential" spreadType="center" length="51.61" shape="-650.88,-867.35 -710.80,-901.33">
        <lane id="20328_0" index="0" disallow="pedestrian tram rail_urban rail rail_electric rail_fast ship" speed="36.11" length="51.61" width="3.50" customShape="1" shape="-667.57,-873.14 -689.19,-887.24 -710.80,-901.33"/>
    </edge>
    <edge id="20329" from="24" to="38" priority="3" type="highway.residential" spreadType="center" length="51.61" shape="-708.89,-904.26 -649.15,-870.40">
        <lane id="20329_0" index="0" disallow="pedestrian tram rail_urban rail rail_electric rail_fast ship" speed="36.11" length="51.61" width="3.50" customShape="1" shape="-708.89,-904.26 -687.28,-890.17 -665.66,-876.07"/>
    </edge>
    <edge id="20331" from="39" to="38" priority="3" type="highway.residential" spreadType="center" length="0.20" shape="-621.39,-846.26 -651.07,-867.47">
        <lane id="20331_0" index="0" disallow="pedestrian tram rail_urban rail rail_electric rail_fast ship" speed="36.11" length="0.20" width="3.50" customShape="1" shape="-637.30,-853.76 -637.47,-853.87"/>
    </edge>
    <edge id="20332" from="38" to="39" priority="3" type="highway.residential" spreadType="center" length="0.20" shape="-649.04,-870.31 -619.36,-849.10">
        <lane id="20332_0" index="0" disallow="pedestrian tram rail_urban rail rail_electric rail_fast ship" speed="36.11" length="0.20" width="3.48" customShape="1" shape="-635.65,-856.86 -635.48,-856.76"/>
    </edge>

    <junction id="15" type="dead_end" x="-710.80" y="-901.33" incLanes="20328_0" intLanes="" shape="-711.76,-899.87 -709.85,-902.80" rightOfWay="edgePriority"/>
    <junction id="21" type="dead_end" x="-704.92" y="-816.85" incLanes="" intLanes="" shape="-704.84,-815.10 -704.99,-818.60" rightOfWay="edgePriority"/>
    <junction id="22" type="dead_end" x="-546.40" y="-799.57" incLanes="" intLanes="" shape="-545.92,-801.25 -546.87,-797.89" rightOfWay="edgePriority"/>
    <junction id="23" type="dead_end" x="-694.26" y="-929.13" incLanes="" intLanes="" shape="-695.14,-927.62 -693.38,-930.64" rightOfWay="edgePriority"/>
    <junction id="24" type="dead_end" x="-708.89" y="-904.26" incLanes="" intLanes="" shape="-709.85,-902.80 -707.93,-905.73" rightOfWay="edgePriority"/>
    <junction id="25" type="dead_end" x="-665.53" y="-978.83" incLanes="19769_0" intLanes="" shape="-666.50,-977.37 -664.55,-980.28" rightOfWay="edgePriority"/>
    <junction id="26" type="dead_end" x="-469.94" y="-909.62" incLanes="19773_0" intLanes="" shape="-469.87,-911.37 -470.00,-907.88" rightOfWay="edgePriority"/>
    <junction id="27" type="dead_end" x="-551.28" y="-890.65" incLanes="19886_0" intLanes="" shape="-549.90,-891.63 -552.67,-889.66" rightOfWay="edgePriority"/>
    <junction id="28" type="dead_end" x="-606.58" y="-1023.76" incLanes="19747_0" intLanes="" shape="-608.25,-1023.24 -604.90,-1024.27" rightOfWay="edgePriority"/>
    <junction id="33" type="dead_end" x="-470.40" y="-906.14" incLanes="" intLanes="" shape="-470.33,-907.89 -470.47,-904.39" rightOfWay="edgePriority"/>
    <junction id="34" type="dead_end" x="-663.57" y="-981.73" incLanes="" intLanes="" shape="-664.54,-980.27 -662.60,-983.18" rightOfWay="edgePriority"/>
    <junction id="35" type="dead_end" x="-554.07" y="-888.60" incLanes="" intLanes="" shape="-552.65,-889.63 -555.49,-887.58" rightOfWay="edgePriority"/>
    <junction id="36" type="dead_end" x="-603.23" y="-1024.79" incLanes="" intLanes="" shape="-604.91,-1024.28 -601.56,-1025.31" rightOfWay="edgePriority"/>
    <junction id="37" type="priority" x="-574.47" y="-921.01" incLanes="19885_0 19772_0 19746_0 19770_0 20126_0" intLanes=":37_0_0 :37_1_0 :37_2_0 :37_3_0 :37_4_0 :37_5_0 :37_6_0 :37_7_0" shape="-558.59,-891.86 -552.95,-895.92 -555.01,-900.27 -554.96,-904.21 -553.13,-907.50 -549.85,-909.92 -545.46,-911.24 -540.28,-911.22 -539.31,-918.15 -549.02,-920.47 -557.64,-924.54 -565.16,-930.37 -571.57,-937.94 -576.88,-947.27 -581.08,-958.35 -587.78,-956.30 -587.19,-951.17 -588.50,-946.90 -591.30,-943.78 -595.16,-942.10 -599.68,-942.15 -604.45,-944.23 -608.34,-938.41 -599.18,-931.56 -592.38,-924.87 -587.96,-918.34 -585.91,-911.97 -586.22,-905.77 -588.91,-899.72 -583.04,-895.91 -579.18,-900.40 -575.15,-902.48 -571.01,-902.42 -566.82,-900.45 -562.66,-896.85">
        <request index="0" response="00000000" foes="00001110" cont="0"/>
        <request index="1" response="00000101" foes="10001101" cont="0"/>
        <request index="2" response="00000001" foes="11001011" cont="0"/>
        <request index="3" response="00000111" foes="11100111" cont="0"/>
        <request index="4" response="00000000" foes="00000000" cont="0"/>
        <request index="5" response="00001000" foes="00001000" cont="0"/>
        <request index="6" response="00001100" foes="00001100" cont="0"/>
        <request index="7" response="00001110" foes="00001110" cont="0"/>
    </junction>
    <junction id="38" type="priority" x="-650.06" y="-868.90" incLanes="20331_0 20142_0 20329_0" intLanes=":38_0_0 :38_1_0 :38_2_0 :38_3_0" shape="-637.89,-852.07 -634.28,-858.07 -636.58,-863.43 -640.00,-862.68 -643.30,-864.04 -647.22,-866.37 -652.27,-869.52 -658.19,-873.31 -664.70,-877.54 -668.53,-871.67">
        <request index="0" response="0000" foes="0100" cont="0"/>
        <request index="1" response="1000" foes="1000" cont="0"/>
        <request index="2" response="1001" foes="1001" cont="0"/>
        <request index="3" response="0000" foes="0110" cont="0"/>
    </junction>
    <junction id="39" type="priority" x="-620.44" y="-847.73" incLanes="20002_0 20125_0 20332_0 20067_0" intLanes=":39_0_0 :39_1_0 :39_2_0 :39_3_0 :39_4_0 :39_5_0 :39_6_0 :39_7_0 :39_8_0" shape="-608.17,-831.67 -603.94,-837.25 -607.36,-840.39 -609.63,-843.74 -610.74,-847.30 -610.71,-851.09 -609.52,-855.09 -607.18,-859.31 -612.98,-863.22 -615.98,-859.54 -619.26,-857.02 -622.80,-855.66 -626.61,-855.45 -630.68,-856.41 -635.03,-858.52 -638.70,-852.57 -634.34,-849.82 -630.41,-847.17 -627.20,-844.74 -624.97,-842.63 -624.03,-840.98 -624.64,-839.90 -623.05,-836.79 -619.24,-837.32 -616.90,-836.75 -614.28,-835.62 -611.37,-833.92">
        <request index="0" response="000000000" foes="111001000" cont="0"/>
        <request index="1" response="000110000" foes="110111000" cont="0"/>
        <request index="2" response="000100000" foes="100100000" cont="0"/>
        <request index="3" response="011100011" foes="011100011" cont="0"/>
        <request index="4" response="000000000" foes="010000010" cont="0"/>
        <request index="5" response="000000000" foes="110001110" cont="0"/>
        <request index="6" response="000000001" foes="000001001" cont="0"/>
        <request index="7" response="000110011" foes="000111011" cont="0"/>
        <request index="8" response="000100111" foes="000100111" cont="0"/>
    </junction>
    <junction id="9" type="dead_end" x="-544.16" y="-802.57" incLanes="20003_0" intLanes="" shape="-543.68,-804.26 -544.64,-800.89" rightOfWay="edgePriority"/>

    <connection from="19746" to="20125" fromLane="0" toLane="0" contPos="-4.00" shape="-582.76,-957.85 -580.68,-950.53 -579.21,-944.18 -578.07,-937.77 -577.43,-932.39 -577.11,-926.97 -577.17,-921.54 -577.52,-917.22 -578.19,-912.93 -579.20,-908.71 -580.20,-905.61 -581.42,-902.59 -582.85,-899.67 -584.51,-896.86" via=":37_2_0" dir="L" state="m"/>
    <connection from="19770" to="20125" fromLane="0" toLane="0" contPos="-4.00" shape="-605.41,-942.77 -600.47,-939.28 -595.73,-935.53 -592.15,-932.29 -588.80,-928.81 -586.50,-926.00 -584.45,-923.01 -582.72,-919.83 -581.78,-917.60 -581.06,-915.30 -580.58,-912.93 -580.37,-910.53 -580.43,-908.11 -580.77,-905.72 -581.38,-903.38 -582.22,-901.12 -583.28,-898.94 -584.51,-896.86" via=":37_3_0" dir="l" state="m"/>
    <connection from="19772" to="20125" fromLane="0" toLane="0" contPos="-4.00" shape="-540.01,-912.94 -545.21,-913.45 -549.39,-913.61 -553.57,-913.51 -557.73,-913.12 -560.82,-912.61 -563.88,-911.89 -566.86,-910.94 -569.77,-909.76 -572.56,-908.33 -575.20,-906.65 -577.68,-904.73 -579.97,-902.59 -582.05,-900.25 -583.93,-897.73 -584.51,-896.86" via=":37_1_0" dir="R" state="m"/>
    <connection from="19885" to="20125" fromLane="0" toLane="0" contPos="-4.00" shape="-557.17,-892.89 -559.38,-895.80 -561.77,-898.56 -563.50,-900.27 -565.36,-901.84 -567.37,-903.20 -568.44,-903.78 -569.56,-904.27 -570.72,-904.64 -571.91,-904.88 -573.12,-904.97 -574.33,-904.90 -575.53,-904.67 -576.68,-904.28 -577.78,-903.76 -578.81,-903.12 -579.79,-902.40 -581.55,-900.72 -583.11,-898.86 -584.51,-896.86" via=":37_0_0" dir="r" state="M"/>
    <connection from="20002" to="20331" fromLane="0" toLane="0" contPos="-4.00" shape="-607.14,-833.09 -608.78,-834.33 -617.11,-840.42 -626.49,-846.82 -637.78,-854.06" via=":39_0_0" dir="s" state="M"/>
    <connection from="20002" to="20126" fromLane="0" toLane="0" contPos="-4.00" shape="-607.14,-833.09 -610.08,-835.60 -611.84,-837.47 -613.41,-839.51 -614.71,-841.73 -615.68,-844.11 -616.02,-845.35 -616.25,-846.61 -616.39,-847.89 -616.41,-849.18 -616.17,-851.74 -615.57,-854.24 -614.68,-856.65 -613.55,-858.96 -611.53,-862.24" via=":39_1_0" dir="l" state="m"/>