<routes>
	<vehicle depart="0.1" departLane="0" departPos="11.452355593902888" departSpeed="0.020803217" id="318" type="bicycle">
		<route edges="2040 2088"/>
	</vehicle>
	<vehicle depart="0.1" departLane="0" departPos="24.977624493343946" departSpeed="0.0" id="36" type="passenger">
		<route edges="2040 2088"/>
	</vehicle>
	<vehicle depart="0.1" departLane="0" departPos="17.066923023938205" departSpeed="2.0089506" id="313" type="passenger">
		<route edges=":28_5 2037"/>
	</vehicle>
	<vehicle depart="0.1" departLane="0" departPos="17.474740977451994" departSpeed="0.00076255125" id="315" type="passenger">
		<route edges="2040 2088"/>
	</vehicle>
	<vehicle depart="0.1" departLane="0" departPos="9.963459280050609" departSpeed="0.0099782891" id="334" type="passenger">
		<route edges="2040 2088"/>
	</vehicle>
	<vehicle depart="0.1" departLane="0" departPos="2.5" departSpeed="0.064905466" id="337" type="passenger">
		<route edges="2040 2088"/>
	</vehicle>
	<vehicle depart="0.1" departLane="0" departPos="21.572176723635682" departSpeed="0.28261655" id="340" type="passenger">
		<route edges="1676 2040"/>
	</vehicle>
	<vehicle depart="0.1" departLane="0" departPos="6.1094857469313455" departSpeed="2.0101491" id="346" type="passenger">
		<route edges="1676 2040"/>
	</vehicle>
	<vehicle depart="0.1" departLane="0" departPos="13.974270632203535" departSpeed="12.78933" id="354" type="passenger">
		<route edges=":28_1 3519 1677 2045"/>
	</vehicle>
	<vehicle depart="0.1" departLane="0" departPos="13.08874453929943" departSpeed="0.97110633" id="344" type="motorcycle">
		<route edges="1676 2040"/>
	</vehicle>
</routes>
