<routes>
	<vehicle depart="0.1" departLane="0" departPos="60.22132631073234" departSpeed="6.8784589" id="311" type="bicycle">
		<route edges="204 360"/>
	</vehicle>
	<vehicle depart="0.1" departLane="0" departPos="66.72444067844052" departSpeed="6.9213189" id="313" type="bicycle">
		<route edges="203 200 135"/>
	</vehicle>
	<vehicle depart="0.1" departLane="0" departPos="7.503934739916188" departSpeed="2.5879772" id="332" type="bicycle">
		<route edges="784 204"/>
	</vehicle>
	<vehicle depart="0.1" departLane="0" departPos="9.007648531862277" departSpeed="0.0" id="31" type="passenger">
		<route edges="357 203"/>
	</vehicle>
	<vehicle depart="0.1" departLane="0" departPos="90.47248749749431" departSpeed="0.0" id="34" type="passenger">
		<route edges="204 360"/>
	</vehicle>
	<vehicle depart="0.1" departLane="0" departPos="38.2706634077479" departSpeed="0.0" id="36" type="passenger">
		<route edges="200 135"/>
	</vehicle>
	<vehicle depart="0.1" departLane="0" departPos="66.62276062067927" departSpeed="5.2315825" id="37" type="passenger">
		<route edges="204 360"/>
	</vehicle>
	<vehicle depart="0.1" departLane="0" departPos="50.106109457548804" departSpeed="0.0" id="38" type="passenger">
		<route edges="784 204"/>
	</vehicle>
	<vehicle depart="0.1" departLane="0" departPos="42.873038927190485" departSpeed="0.0016617652" id="314" type="passenger">
		<route edges="784 204"/>
	</vehicle>
	<vehicle depart="0.1" departLane="0" departPos="36.0366555247039" departSpeed="0.01472756" id="316" type="passenger">
		<route edges="784 204"/>
	</vehicle>
	<vehicle depart="0.1" departLane="0" departPos="23.388979604456928" departSpeed="11.621716" id="317" type="passenger">
		<route edges="785"/>
	</vehicle>
	<vehicle depart="0.1" departLane="0" departPos="15.929197358278232" departSpeed="11.164134" id="320" type="passenger">
		<route edges=":25_1 200 135"/>
	</vehicle>
	<vehicle depart="0.1" departLane="0" departPos="60.66898923438372" departSpeed="14.638553" id="322" type="passenger">
		<route edges="203 200 135"/>
	</vehicle>
	<vehicle depart="0.1" departLane="0" departPos="24.34830390132229" departSpeed="0.18242129" id="323" type="passenger">
		<route edges="784 204"/>
	</vehicle>
	<vehicle depart="0.1" departLane="0" departPos="38.308435523427605" departSpeed="0.0" id="324" type="passenger">
		<route edges="201 785"/>
	</vehicle>
	<vehicle depart="0.1" departLane="0" departPos="31.02409677550565" departSpeed="0.1322433" id="326" type="passenger">
		<route edges="201 785"/>
	</vehicle>
	<vehicle depart="0.1" departLane="0" departPos="13.211977444436684" departSpeed="9.3508766" id="328" type="passenger">
		<route edges="203 200"/>
	</vehicle>
	<vehicle depart="0.1" departLane="0" departPos="12.122826495685326" departSpeed="0.66537931" id="330" type="passenger">
		<route edges="784 204"/>
	</vehicle>
	<vehicle depart="0.1" departLane="0" departPos="4.620544614982872" departSpeed="7.2488698" id="331" type="passenger">
		<route edges=":26_4 203 200"/>
	</vehicle>
	<vehicle depart="0.1" departLane="0" departPos="2.5" departSpeed="4.0788401" id="333" type="passenger">
		<route edges=":28_2 201 785"/>
	</vehicle>
	<vehicle depart="0.1" departLane="0" departPos="29.003020988438863" departSpeed="0.062221674" id="319" type="motorcycle">
		<route edges="784 204"/>
	</vehicle>
	<vehicle depart="0.1" departLane="0" departPos="17.12921535888254" departSpeed="0.36872873" id="325" type="motorcycle">
		<route edges="784 204"/>
	</vehicle>
	<vehicle depart="0.1" departLane="0" departPos="28.856469601843116" departSpeed="16.428698" id="334" type="motorcycle">
		<route edges="359 1539"/>
	</vehicle>
	<vehicle depart="0.1" departLane="0" departPos="31.241717801773312" departSpeed="0.055681913" id="30" type="truck">
		<route edges="200 135"/>
	</vehicle>
	<vehicle depart="0.1" departLane="0" departPos="83.41384546037818" departSpeed="0.011556533" id="310" type="truck">
		<route edges="204 360"/>
	</vehicle>
	<vehicle depart="0.1" departLane="0" departPos="16.368996583591063" departSpeed="5.5298289" id="329" type="truck">
		<route edges=":28_1 135"/>
	</vehicle>
</routes>
