<routes>
	<vehicle depart="0.1" departLane="0" departPos="71.74119424119823" departSpeed="9.2203481" id="1" type="passenger">
		<route edges="50201 50213 50197"/>
	</vehicle>
	<vehicle depart="0.1" departLane="0" departPos="120.93085544505465" departSpeed="0.38067948" id="2" type="passenger">
		<route edges="50195 50211 50199"/>
	</vehicle>
	<vehicle depart="0.1" departLane="0" departPos="147.39860605627962" departSpeed="1.6699563" id="4" type="passenger">
		<route edges="50205 50207 50197"/>
	</vehicle>
	<vehicle depart="0.1" departLane="0" departPos="155.3987678257611" departSpeed="3.3197929" id="5" type="passenger">
		<route edges="50205 50217 50199"/>
	</vehicle>
	<vehicle depart="0.1" departLane="0" departPos="44.09683476484871" departSpeed="1.0393661" id="7" type="passenger">
		<route edges="50201 50213 50197"/>
	</vehicle>
</routes>
