<routes>
	<vehicle depart="0.1" departLane="0" departPos="6.247749167227164" departSpeed="0.41629876" id="32" type="passenger">
		<route edges="39334 39441"/>
	</vehicle>
	<vehicle depart="0.1" departLane="0" departPos="33.07668076270541" departSpeed="0.0" id="33" type="passenger">
		<route edges="39442 39331"/>
	</vehicle>
	<vehicle depart="0.1" departLane="0" departPos="15.694357320576714" departSpeed="0.74747676" id="37" type="passenger">
		<route edges=":50_7 39334"/>
	</vehicle>
	<vehicle depart="0.1" departLane="0" departPos="14.683811207822785" departSpeed="0.01133133" id="314" type="passenger">
		<route edges="39105 39334"/>
	</vehicle>
	<vehicle depart="0.1" departLane="0" departPos="60.960698804783135" departSpeed="2.1835915" id="329" type="passenger">
		<route edges="39182 39334"/>
	</vehicle>
	<vehicle depart="0.1" departLane="0" departPos="50.75860370784721" departSpeed="1.4120772" id="333" type="passenger">
		<route edges="39182 39334"/>
	</vehicle>
	<vehicle depart="0.1" departLane="0" departPos="43.11835444002001" departSpeed="0.91507638" id="335" type="passenger">
		<route edges="39182 39334"/>
	</vehicle>
	<vehicle depart="0.1" departLane="0" departPos="35.75541158800348" departSpeed="0.7628774" id="338" type="passenger">
		<route edges="39182 39334"/>
	</vehicle>
	<vehicle depart="0.1" departLane="0" departPos="28.516838887928262" departSpeed="0.54777221" id="342" type="passenger">
		<route edges="39182 39334"/>
	</vehicle>
	<vehicle depart="0.1" departLane="0" departPos="25.344986672829595" departSpeed="1.1427731" id="30" type="truck">
		<route edges="39796 39382"/>
	</vehicle>
</routes>
