<!-- generated on Tue Feb  9 22:02:33 2021 by Eclipse SUMO netconvert Version 1.8.0
<configuration xmlns:xsi="http://www.w3.org/2001/XMLSchema-instance" xsi:noNamespaceSchemaLocation="http://sumo.dlr.de/xsd/netconvertConfiguration.xsd">

    <input>
        <node-files value="./converted_scenarios/scenario-factory/DEU_Ibbenbueren-7_2_I-1-1/DEU_Ibbenbueren-7_2_I-1-1.nod.xml"/>
        <edge-files value="./converted_scenarios/scenario-factory/DEU_Ibbenbueren-7_2_I-1-1/DEU_Ibbenbueren-7_2_I-1-1.edg.xml"/>
        <connection-files value="./converted_scenarios/scenario-factory/DEU_Ibbenbueren-7_2_I-1-1/DEU_Ibbenbueren-7_2_I-1-1.con.xml"/>
        <tllogic-files value="./converted_scenarios/scenario-factory/DEU_Ibbenbueren-7_2_I-1-1/DEU_Ibbenbueren-7_2_I-1-1.tll.xml"/>
        <type-files value="/home/zen/commonroad-interactive-benchmarks/install/commonroad-map-tool/crmapconverter/sumo_map/templates/DEU.typ.xml"/>
    </input>

    <output>
        <output-file value="./converted_scenarios/scenario-factory/DEU_Ibbenbueren-7_2_I-1-1/DEU_Ibbenbueren-7_2_I-1-1.net.xml"/>
    </output>

    <processing>
        <geometry.remove.keep-edges.explicit value="true"/>
        <geometry.avoid-overlap value="true"/>
        <offset.disable-normalization value="true"/>
    </processing>

    <junctions>
        <no-turnarounds value="true"/>
        <junctions.internal-link-detail value="20"/>
    </junctions>

    <report>
        <aggregate-warnings value="5"/>
    </report>

    <random_number>
        <seed value="1234"/>
    </random_number>

</configuration>
--><net xmlns:xsi="http://www.w3.org/2001/XMLSchema-instance" version="1.6" junctionCornerDetail="5" junctionLinkDetail="20" limitTurnSpeed="5.50" xsi:noNamespaceSchemaLocation="http://sumo.dlr.de/xsd/net_file.xsd">

    <location netOffset="0.00,0.00" convBoundary="500.01,-1016.30,787.36,-779.45" origBoundary="500.01,-1016.30,787.36,-779.45" projParameter="!"/>

    <type id="highway.bridleway" priority="1" speed="2.78" allow="pedestrian" oneway="1" width="2.00"/>
    <type id="highway.bus_guideway" priority="1" speed="27.78" allow="bus" oneway="1"/>
    <type id="highway.cycleway" priority="1" speed="8.33" allow="bicycle" oneway="0" width="1.00"/>
    <type id="highway.footway" priority="1" speed="2.78" allow="pedestrian" oneway="1" width="2.00"/>
    <type id="highway.ford" priority="1" speed="2.78" allow="army" oneway="0"/>
    <type id="highway.living_street" priority="2" speed="2.78" disallow="tram rail_urban rail rail_electric rail_fast ship" oneway="0"/>
    <type id="highway.motorway" priority="14" speed="39.44" allow="private emergency authority army vip passenger hov taxi bus coach delivery truck trailer motorcycle evehicle custom1 custom2" oneway="1"/>
    <type id="highway.motorway_link" priority="9" speed="22.22" allow="private emergency authority army vip passenger hov taxi bus coach delivery truck trailer motorcycle evehicle custom1 custom2" oneway="1"/>
    <type id="highway.path" priority="1" speed="2.78" allow="pedestrian bicycle" oneway="0" width="2.00"/>
    <type id="highway.pedestrian" priority="1" speed="2.78" allow="pedestrian" oneway="1" width="2.00"/>
    <type id="highway.primary" priority="12" speed="27.78" disallow="pedestrian tram rail_urban rail rail_electric rail_fast ship" oneway="0"/>
    <type id="highway.primary_link" priority="7" speed="22.22" disallow="pedestrian tram rail_urban rail rail_electric rail_fast ship" oneway="0"/>
    <type id="highway.raceway" priority="15" speed="83.33" allow="vip" oneway="0"/>
    <type id="highway.residential" priority="3" speed="13.89" disallow="pedestrian tram rail_urban rail rail_electric rail_fast ship" oneway="0"/>
    <type id="highway.secondary" priority="11" speed="27.78" disallow="pedestrian tram rail_urban rail rail_electric rail_fast ship" oneway="0"/>
    <type id="highway.secondary_link" priority="6" speed="22.22" disallow="pedestrian tram rail_urban rail rail_electric rail_fast ship" oneway="0"/>
    <type id="highway.service" priority="1" speed="5.56" allow="pedestrian delivery bicycle" oneway="0"/>
    <type id="highway.stairs" priority="1" speed="1.39" allow="pedestrian" oneway="1" width="2.00"/>
    <type id="highway.step" priority="1" speed="1.39" allow="pedestrian" oneway="1" width="2.00"/>
    <type id="highway.steps" priority="1" speed="1.39" allow="pedestrian" oneway="1" width="2.00"/>
    <type id="highway.tertiary" priority="10" speed="22.22" disallow="pedestrian tram rail_urban rail rail_electric rail_fast ship" oneway="0"/>
    <type id="highway.tertiary_link" priority="5" speed="22.22" disallow="pedestrian tram rail_urban rail rail_electric rail_fast ship" oneway="0"/>
    <type id="highway.track" priority="1" speed="5.56" allow="pedestrian motorcycle moped bicycle" oneway="0"/>
    <type id="highway.trunk" priority="13" speed="27.78" disallow="pedestrian bicycle tram rail_urban rail rail_electric rail_fast ship" oneway="0"/>
    <type id="highway.trunk_link" priority="8" speed="22.22" disallow="pedestrian bicycle tram rail_urban rail rail_electric rail_fast ship" oneway="0"/>
    <type id="highway.unclassified" priority="4" speed="13.89" disallow="pedestrian tram rail_urban rail rail_electric rail_fast ship" oneway="0"/>
    <type id="highway.unsurfaced" priority="1" speed="8.33" disallow="tram rail_urban rail rail_electric rail_fast ship" oneway="0"/>
    <type id="railway.highspeed" priority="21" speed="69.44" allow="rail_fast" oneway="1"/>
    <type id="railway.light_rail" priority="19" speed="27.78" allow="rail_urban" oneway="1"/>
    <type id="railway.preserved" priority="16" speed="27.78" allow="rail" oneway="1"/>
    <type id="railway.rail" priority="20" speed="44.44" allow="rail" oneway="1"/>
    <type id="railway.subway" priority="18" speed="27.78" allow="rail_urban" oneway="1"/>
    <type id="railway.tram" priority="17" speed="13.89" allow="tram" oneway="1"/>

    <edge id=":28_0" function="internal">
        <lane id=":28_0_0" index="0" disallow="pedestrian tram rail_urban rail rail_electric rail_fast ship" speed="36.11" length="0.10" width="3.50" shape="592.10,-919.12 592.10,-919.12"/>
    </edge>
    <edge id=":30_0" function="internal">
        <lane id=":30_0_0" index="0" disallow="pedestrian tram rail_urban rail rail_electric rail_fast ship" speed="36.11" length="0.25" width="3.50" shape="663.88,-953.71 664.11,-953.80"/>
    </edge>
    <edge id=":37_0" function="internal">
        <lane id=":37_0_0" index="0" disallow="pedestrian tram rail_urban rail rail_electric rail_fast ship" speed="36.11" length="2.95" width="3.50" shape="690.33,-962.84 693.07,-963.94"/>
    </edge>
    <edge id=":38_0" function="internal">
        <lane id=":38_0_0" index="0" disallow="pedestrian tram rail_urban rail rail_electric rail_fast ship" speed="36.11" length="3.00" width="3.50" shape="567.85,-909.61 565.06,-908.51"/>
    </edge>
    <edge id=":39_0" function="internal">
        <lane id=":39_0_0" index="0" disallow="pedestrian tram rail_urban rail rail_electric rail_fast ship" speed="36.11" length="3.00" width="3.50" shape="589.43,-921.83 592.22,-922.92"/>
    </edge>
    <edge id=":43_0" function="internal">
        <lane id=":43_0_0" index="0" disallow="pedestrian tram rail_urban rail rail_electric rail_fast ship" speed="36.11" length="3.00" width="3.50" shape="563.78,-911.77 566.57,-912.87"/>
    </edge>
    <edge id=":49_0" function="internal">
        <lane id=":49_0_0" index="0" disallow="pedestrian tram rail_urban rail rail_electric rail_fast ship" speed="36.11" length="32.18" width="3.50" shape="650.89,-846.62 643.77,-868.32 640.73,-877.15"/>
    </edge>
    <edge id=":49_1" function="internal">
        <lane id=":49_1_0" index="0" disallow="pedestrian tram rail_urban rail rail_electric rail_fast ship" speed="12.81" length="35.01" width="3.50" shape="650.88,-846.62 650.21,-849.05 649.74,-851.50 649.51,-853.99 649.57,-856.49 649.94,-858.95 650.66,-861.35 651.70,-863.61 653.06,-865.71 654.67,-867.62 656.48,-869.33 658.46,-870.87 661.63,-872.86 665.01,-874.54"/>
    </edge>
    <edge id=":49_2" function="internal">
        <lane id=":49_2_0" index="0" disallow="pedestrian tram rail_urban rail rail_electric rail_fast ship" speed="11.86" length="29.85" width="3.50" shape="666.44,-871.35 663.45,-869.86 660.65,-868.11 658.96,-866.81 657.40,-865.35 656.04,-863.75 654.90,-862.01 654.02,-860.15 653.42,-858.18 653.09,-856.13 653.04,-854.03 653.23,-851.91 653.63,-849.80 654.22,-847.69"/>
    </edge>
    <edge id=":49_3" function="internal">
        <lane id=":49_3_0" index="0" disallow="pedestrian tram rail_urban rail rail_electric rail_fast ship" speed="11.21" length="30.55" width="3.50" shape="666.44,-871.35 662.73,-869.83 658.93,-868.65 656.33,-868.12 653.68,-867.87 652.36,-867.87 651.04,-867.99 649.73,-868.22 648.45,-868.59 647.23,-869.10 646.07,-869.75 645.01,-870.54 644.04,-871.45 643.18,-872.46 642.43,-873.55 641.77,-874.71 640.73,-877.15"/>
    </edge>
    <edge id=":49_4" function="internal">
        <lane id=":49_4_0" index="0" disallow="pedestrian tram rail_urban rail rail_electric rail_fast ship" speed="10.13" length="24.70" width="3.50" shape="644.02,-878.34 644.89,-876.33 645.40,-875.46 645.99,-874.63 646.65,-873.88 647.39,-873.23 648.20,-872.67 649.08,-872.22 650.01,-871.87 651.00,-871.63 652.02,-871.48 653.07,-871.43 654.12,-871.44 656.33,-871.70 658.51,-872.18 661.78,-873.22 665.01,-874.54"/>
    </edge>
    <edge id=":49_5" function="internal">
        <lane id=":49_5_0" index="0" disallow="pedestrian tram rail_urban rail rail_electric rail_fast ship" speed="36.11" length="32.30" width="3.50" shape="644.02,-878.34 647.09,-869.45 654.22,-847.69"/>
    </edge>
    <edge id=":50_0" function="internal">
        <lane id=":50_0_0" index="0" disallow="pedestrian tram rail_urban rail rail_electric rail_fast ship" speed="11.02" length="29.12" width="3.50" shape="628.55,-913.90 627.30,-917.19 626.28,-919.23 625.08,-921.14 623.64,-922.86 622.87,-923.59 622.03,-924.26 621.14,-924.85 620.21,-925.36 619.23,-925.77 618.21,-926.09 617.15,-926.31 616.11,-926.45 613.86,-926.48 611.63,-926.22 609.40,-925.72 606.07,-924.60"/>
    </edge>
    <edge id=":50_1" function="internal">
        <lane id=":50_1_0" index="0" disallow="pedestrian tram rail_urban rail rail_electric rail_fast ship" speed="36.11" length="41.93" width="3.50" shape="628.55,-913.90 627.32,-917.87 623.47,-931.73 620.64,-941.55 618.37,-948.27 616.11,-953.91"/>
    </edge>
    <edge id=":50_2" function="internal">
        <lane id=":50_2_0" index="0" disallow="pedestrian tram rail_urban rail rail_electric rail_fast ship" speed="13.28" length="38.30" width="3.50" shape="628.55,-913.90 627.49,-917.77 626.92,-921.15 626.73,-924.00 626.85,-926.85 627.35,-929.66 628.03,-931.84 628.98,-933.92 630.18,-935.87 631.98,-938.08 634.07,-940.03 636.37,-941.73 639.33,-943.45 642.46,-944.89"/>
    </edge>
    <edge id=":50_3" function="internal">
        <lane id=":50_3_0" index="0" disallow="pedestrian tram rail_urban rail rail_electric rail_fast ship" speed="11.85" length="30.30" width="3.50" shape="645.12,-938.42 641.48,-936.72 638.55,-934.95 636.29,-933.20 634.66,-931.59 633.26,-929.79 632.13,-927.81 631.33,-925.67 630.88,-923.43 630.77,-921.15 630.96,-918.87 631.55,-916.07 631.88,-914.97"/>
    </edge>
    <edge id=":50_4" function="internal">
        <lane id=":50_4_0" index="0" disallow="pedestrian tram rail_urban rail rail_electric rail_fast ship" speed="36.11" length="41.43" width="3.50" shape="645.12,-938.42 637.09,-935.33 625.62,-931.42 612.23,-926.90 606.07,-924.60"/>
    </edge>
    <edge id=":50_5" function="internal">
        <lane id=":50_5_0" index="0" disallow="pedestrian tram rail_urban rail rail_electric rail_fast ship" speed="12.40" length="34.59" width="3.50" shape="643.79,-941.66 641.28,-940.73 638.72,-940.02 636.10,-939.58 633.44,-939.47 632.12,-939.55 630.80,-939.74 629.51,-940.04 628.24,-940.45 627.01,-940.96 625.84,-941.58 624.72,-942.30 622.66,-943.97 620.84,-945.91 619.25,-948.05 617.87,-950.32 616.11,-953.91"/>
    </edge>
    <edge id=":50_6" function="internal">
        <lane id=":50_6_0" index="0" disallow="pedestrian tram rail_urban rail rail_electric rail_fast ship" speed="11.41" length="29.11" width="3.50" shape="619.30,-955.34 620.87,-952.14 622.05,-950.19 623.40,-948.37 624.92,-946.73 626.64,-945.33 627.52,-944.76 628.47,-944.26 629.45,-943.84 630.47,-943.50 631.51,-943.26 632.58,-943.10 633.64,-943.03 635.87,-943.11 638.08,-943.49 640.28,-944.09 642.46,-944.89"/>
    </edge>
    <edge id=":50_7" function="internal">
        <lane id=":50_7_0" index="0" disallow="pedestrian tram rail_urban rail rail_electric rail_fast ship" speed="36.11" length="42.31" width="3.50" shape="619.31,-955.34 621.62,-949.54 623.94,-942.71 626.79,-932.81 630.66,-918.92 631.88,-914.97"/>
    </edge>
    <edge id=":50_8" function="internal">
        <lane id=":50_8_0" index="0" disallow="pedestrian tram rail_urban rail rail_electric rail_fast ship" speed="12.70" length="38.60" width="3.50" shape="619.31,-955.34 620.25,-952.95 621.33,-949.37 621.80,-946.84 622.01,-944.27 621.89,-941.66 621.41,-939.10 621.01,-937.79 620.52,-936.56 619.93,-935.37 619.23,-934.21 617.66,-932.14 615.83,-930.30 613.82,-928.70 611.70,-927.31 609.48,-926.11 606.07,-924.60"/>
    </edge>
    <edge id=":50_9" function="internal">
        <lane id=":50_9_0" index="0" disallow="pedestrian tram rail_urban rail rail_electric rail_fast ship" speed="11.74" length="32.85" width="3.50" shape="604.79,-927.86 607.80,-929.19 609.73,-930.23 611.56,-931.42 613.27,-932.79 614.82,-934.33 616.15,-936.07 616.71,-937.01 617.20,-937.99 617.61,-939.01 617.93,-940.05 618.34,-942.20 618.44,-944.38 618.27,-946.57 617.87,-948.72 616.92,-951.86 616.11,-953.91"/>
    </edge>
    <edge id=":50_10" function="internal">
        <lane id=":50_10_0" index="0" disallow="pedestrian tram rail_urban rail rail_electric rail_fast ship" speed="36.11" length="41.35" width="3.50" shape="604.79,-927.86 612.70,-931.17 623.66,-936.29 636.42,-942.30 642.46,-944.89"/>
    </edge>
    <edge id=":50_11" function="internal">
        <lane id=":50_11_0" index="0" disallow="pedestrian tram rail_urban rail rail_electric rail_fast ship" speed="12.04" length="34.95" width="3.50" shape="604.79,-927.86 608.62,-929.14 611.24,-929.73 613.91,-930.04 616.60,-930.00 617.93,-929.83 619.24,-929.55 620.52,-929.15 621.76,-928.63 622.95,-927.99 624.07,-927.25 625.11,-926.41 626.08,-925.48 627.81,-923.42 629.25,-921.15 630.45,-918.75 631.88,-914.97"/>
    </edge>
    <edge id=":51_0" function="internal">
        <lane id=":51_0_0" index="0" disallow="pedestrian tram rail_urban rail rail_electric rail_fast ship" speed="10.13" length="24.34" width="3.50" shape="640.67,-877.35 639.77,-879.43 639.24,-880.33 638.63,-881.18 637.94,-881.95 637.17,-882.63 636.33,-883.21 635.42,-883.67 634.45,-884.04 633.43,-884.29 632.37,-884.45 631.28,-884.52 630.19,-884.51 627.90,-884.27 625.64,-883.79 623.39,-883.15 620.02,-881.91"/>
    </edge>
    <edge id=":51_1" function="internal">
        <lane id=":51_1_0" index="0" disallow="pedestrian tram rail_urban rail rail_electric rail_fast ship" speed="36.11" length="32.53" width="3.50" shape="640.67,-877.35 637.58,-886.30 630.37,-908.21"/>
    </edge>
    <edge id=":51_2" function="internal">
        <lane id=":51_2_0" index="0" disallow="pedestrian tram rail_urban rail rail_electric rail_fast ship" speed="36.11" length="32.41" width="3.50" shape="633.70,-909.28 640.89,-887.43 643.96,-878.54"/>
    </edge>
    <edge id=":51_3" function="internal">
        <lane id=":51_3_0" index="0" disallow="pedestrian tram rail_urban rail rail_electric rail_fast ship" speed="12.61" length="34.51" width="3.50" shape="633.70,-909.28 634.68,-905.54 635.06,-903.02 635.17,-900.47 634.97,-897.93 634.42,-895.44 633.50,-893.06 632.22,-890.85 630.64,-888.85 628.81,-887.07 626.79,-885.51 624.64,-884.14 621.22,-882.42 620.02,-881.91"/>
    </edge>
    <edge id=":51_4" function="internal">
        <lane id=":51_4_0" index="0" disallow="pedestrian tram rail_urban rail rail_electric rail_fast ship" speed="11.63" length="29.21" width="3.50" shape="618.70,-885.15 619.73,-885.58 622.76,-887.11 624.61,-888.28 626.33,-889.60 627.87,-891.09 629.19,-892.74 630.24,-894.55 631.00,-896.49 631.46,-898.54 631.64,-900.65 631.54,-902.80 631.22,-904.95 630.37,-908.21"/>
    </edge>
    <edge id=":51_5" function="internal">
        <lane id=":51_5_0" index="0" disallow="pedestrian tram rail_urban rail rail_electric rail_fast ship" speed="11.21" length="30.07" width="3.50" shape="618.70,-885.15 622.57,-886.56 625.20,-887.30 627.88,-887.83 630.60,-888.07 631.96,-888.06 633.32,-887.94 634.67,-887.70 635.98,-887.32 637.24,-886.80 638.43,-886.13 639.54,-885.33 640.54,-884.40 641.43,-883.36 642.21,-882.24 642.88,-881.06 643.96,-878.54"/>
    </edge>
    <edge id=":52_0" function="internal">
        <lane id=":52_0_0" index="0" disallow="pedestrian tram rail_urban rail rail_electric rail_fast ship" speed="36.11" length="38.90" width="3.46" shape="707.68,-827.04 695.62,-862.96 695.28,-863.91"/>
    </edge>
    <edge id=":52_1" function="internal">
        <lane id=":52_1_0" index="0" disallow="pedestrian tram rail_urban rail rail_electric rail_fast ship" speed="12.43" length="34.62" width="3.50" shape="707.68,-827.04 706.64,-830.80 706.20,-833.32 706.01,-835.87 706.11,-838.43 706.56,-840.94 706.93,-842.17 707.39,-843.36 707.94,-844.52 708.59,-845.62 710.12,-847.67 711.93,-849.47 713.95,-851.05 716.12,-852.40 719.57,-854.08 720.78,-854.56"/>
    </edge>
    <edge id=":52_2" function="internal">
        <lane id=":52_2_0" index="0" disallow="pedestrian tram rail_urban rail rail_electric rail_fast ship" speed="11.44" length="29.17" width="3.50" shape="722.03,-851.30 721.00,-850.88 717.96,-849.41 716.12,-848.26 714.41,-846.94 712.91,-845.44 711.64,-843.73 711.13,-842.86 710.68,-841.93 710.31,-840.96 710.02,-839.99 709.64,-837.89 709.55,-835.75 709.71,-833.59 710.09,-831.44 710.99,-828.18"/>
    </edge>
    <edge id=":52_3" function="internal">
        <lane id=":52_3_0" index="0" disallow="pedestrian tram rail_urban rail rail_electric rail_fast ship" speed="12.22" length="34.03" width="3.46" shape="722.03,-851.30 719.54,-850.44 717.00,-849.78 714.41,-849.38 711.80,-849.30 710.49,-849.39 709.20,-849.59 707.93,-849.89 706.68,-850.30 705.48,-850.82 704.34,-851.45 703.24,-852.18 702.22,-852.99 700.37,-854.84 698.77,-856.91 697.41,-859.15 696.26,-861.50 695.28,-863.91"/>
    </edge>
    <edge id=":52_4" function="internal">
        <lane id=":52_4_0" index="0" disallow="pedestrian tram rail_urban rail rail_electric rail_fast ship" speed="11.23" length="28.51" width="3.50" shape="698.52,-865.22 699.41,-863.02 700.41,-861.00 701.56,-859.09 702.89,-857.35 704.43,-855.81 705.24,-855.17 706.11,-854.59 707.02,-854.09 707.98,-853.67 708.97,-853.34 709.99,-853.09 711.03,-852.93 712.07,-852.85 714.26,-852.92 716.44,-853.26 718.61,-853.82 720.78,-854.56"/>
    </edge>
    <edge id=":52_5" function="internal">
        <lane id=":52_5_0" index="0" disallow="pedestrian tram rail_urban rail rail_electric rail_fast ship" speed="36.11" length="39.08" width="3.50" shape="698.53,-865.22 698.91,-864.14 710.99,-828.18"/>
    </edge>
    <edge id=":53_0" function="internal">
        <lane id=":53_0_0" index="0" disallow="pedestrian tram rail_urban rail rail_electric rail_fast ship" speed="36.11" length="8.04" width="3.50" shape="683.43,-955.52 676.27,-951.86"/>
        <lane id=":53_0_1" index="1" disallow="pedestrian tram rail_urban rail rail_electric rail_fast ship" speed="36.11" length="8.04" width="3.50" shape="683.00,-956.54 675.35,-954.07"/>
    </edge>

    <edge id="39105" from="53" to="50" priority="3" type="highway.residential" spreadType="center" length="33.92" shape="679.51,-954.52 625.49,-930.95">
        <lane id="39105_0" index="0" disallow="pedestrian tram rail_urban rail rail_electric rail_fast ship" speed="36.11" length="33.94" width="3.50" customShape="1" shape="676.49,-951.33 655.88,-942.85 645.10,-938.41"/>
        <lane id="39105_1" index="1" disallow="pedestrian tram rail_urban rail rail_electric rail_fast ship" speed="36.11" length="33.92" width="3.50" customShape="1" shape="675.15,-954.56 654.55,-946.09 643.78,-941.66"/>
    </edge>
    <edge id="39107" from="50" to="30" priority="3" type="highway.residential" spreadType="center" length="23.16" shape="623.51,-935.80 663.99,-953.76">
        <lane id="39107_0" index="0" disallow="pedestrian tram rail_urban rail rail_electric rail_fast ship" speed="36.11" length="23.16" width="3.50" customShape="1" shape="642.46,-944.89 653.22,-949.32 663.88,-953.71"/>
    </edge>
    <edge id="39109" from="45" to="52" priority="3" type="highway.residential" spreadType="center" length="70.01" shape="787.36,-876.42 709.81,-846.72">
        <lane id="39109_0" index="0" disallow="pedestrian tram rail_urban rail rail_electric rail_fast ship" speed="36.11" length="70.01" width="3.50" customShape="1" shape="787.36,-876.42 779.79,-873.51 722.02,-851.29"/>
    </edge>
    <edge id="39110" from="52" to="36" priority="3" type="highway.residential" spreadType="center" length="70.00" shape="708.55,-849.99 786.11,-879.69">
        <lane id="39110_0" index="0" disallow="pedestrian tram rail_urban rail rail_electric rail_fast ship" speed="36.11" length="70.00" width="3.50" customShape="1" shape="720.78,-854.56 778.53,-876.77 786.11,-879.69"/>
    </edge>
    <edge id="39172" from="38" to="42" priority="3" type="highway.residential" spreadType="center" length="68.50">
        <lane id="39172_0" index="0" disallow="pedestrian tram rail_urban rail rail_electric rail_fast ship" speed="36.11" length="68.50" width="3.50" customShape="1" shape="565.06,-908.51 501.29,-883.49"/>
    </edge>
    <edge id="39173" from="48" to="43" priority="3" type="highway.residential" spreadType="center" length="68.50">
        <lane id="39173_0" index="0" disallow="pedestrian tram rail_urban rail rail_electric rail_fast ship" speed="36.11" length="68.50" width="3.50" customShape="1" shape="500.01,-886.75 563.78,-911.77"/>
    </edge>
    <edge id="39181" from="50" to="29" priority="3" type="highway.residential" spreadType="center" length="70.00" shape="622.74,-933.42 581.90,-1014.90">
        <lane id="39181_0" index="0" disallow="pedestrian tram rail_urban rail rail_electric rail_fast ship" speed="36.11" length="70.00" width="3.50" customShape="1" shape="616.11,-953.91 613.25,-960.29 608.83,-969.28 603.61,-978.98 597.06,-990.24 581.90,-1014.90"/>
    </edge>
    <edge id="39182" from="44" to="50" priority="3" type="highway.residential" spreadType="center" length="70.00" shape="585.14,-1016.30 625.87,-934.98">
        <lane id="39182_0" index="0" disallow="pedestrian tram rail_urban rail rail_electric rail_fast ship" speed="36.11" length="70.00" width="3.50" customShape="1" shape="585.14,-1016.30 600.11,-991.96 606.70,-980.62 611.97,-970.83 616.43,-961.75 619.33,-955.30"/>
    </edge>
    <edge id="39322" from="49" to="14" priority="3" type="highway.residential" spreadType="center" length="13.55" shape="655.28,-866.22 658.34,-834.78">
        <lane id="39322_0" index="0" disallow="pedestrian tram rail_urban rail rail_electric rail_fast ship" speed="36.11" length="13.55" width="3.50" customShape="1" shape="654.22,-847.69 656.28,-841.24 658.34,-834.78"/>
    </edge>
    <edge id="39323" from="31" to="49" priority="3" type="highway.residential" spreadType="center" length="13.56" shape="655.00,-833.72 651.80,-865.87">
        <lane id="39323_0" index="0" disallow="pedestrian tram rail_urban rail rail_electric rail_fast ship" speed="36.11" length="13.56" width="3.50" customShape="1" shape="655.00,-833.72 652.94,-840.18 650.88,-846.64"/>
    </edge>
    <edge id="39325" from="52" to="35" priority="3" type="highway.residential" spreadType="center" length="50.88" shape="710.89,-848.88 729.79,-780.94">
        <lane id="39325_0" index="0" disallow="pedestrian tram rail_urban rail rail_electric rail_fast ship" speed="36.11" length="50.88" width="3.50" customShape="1" shape="710.99,-828.18 715.89,-813.90 719.82,-803.53 723.92,-793.77 729.79,-780.94"/>
    </edge>
    <edge id="39326" from="47" to="52" priority="3" type="highway.residential" spreadType="center" length="51.32" shape="726.63,-779.45 707.52,-847.94">
        <lane id="39326_0" index="0" disallow="pedestrian tram rail_urban rail rail_electric rail_fast ship" speed="36.11" length="51.32" width="3.50" customShape="1" shape="726.63,-779.45 720.71,-792.37 716.57,-802.23 712.61,-812.70 707.66,-827.09"/>
    </edge>
    <edge id="39328" from="49" to="52" priority="3" type="highway.residential" spreadType="center" length="43.17" shape="654.08,-867.62 709.79,-850.02">
        <lane id="39328_0" index="0" disallow="pedestrian tram rail_urban rail rail_electric rail_fast ship" speed="36.11" length="43.17" width="3.50" customShape="1" shape="665.01,-874.54 668.50,-876.05 673.62,-877.97 677.83,-879.19 682.12,-880.06 685.92,-880.48 687.56,-880.45 689.15,-880.07 690.15,-879.60 691.05,-878.99 691.84,-878.24 692.84,-876.93 694.79,-873.63 696.71,-869.71 698.55,-865.15"/>
    </edge>
    <edge id="39329" from="52" to="49" priority="3" type="highway.residential" spreadType="center" length="37.54" shape="708.74,-846.70 653.03,-864.30">
        <lane id="39329_0" index="0" disallow="pedestrian tram rail_urban rail rail_electric rail_fast ship" speed="36.11" length="37.54" width="3.46" customShape="1" shape="695.28,-863.91 693.60,-868.09 691.87,-871.66 690.14,-874.65 689.38,-875.72 688.94,-876.20 688.43,-876.58 687.87,-876.84 686.62,-876.99 685.33,-876.92 681.96,-876.48 678.11,-875.65 674.32,-874.51 669.64,-872.74 666.39,-871.33"/>
    </edge>
    <edge id="39331" from="51" to="49" priority="3" type="highway.residential" spreadType="center" length="0.27" shape="632.46,-891.32 654.83,-867.14">
        <lane id="39331_0" index="0" disallow="pedestrian tram rail_urban rail rail_electric rail_fast ship" speed="36.11" length="0.27" width="3.50" customShape="1" shape="643.96,-878.54 644.04,-878.28"/>
    </edge>
    <edge id="39332" from="49" to="51" priority="3" type="highway.residential" spreadType="center" length="0.27" shape="652.27,-864.76 629.89,-888.95">
        <lane id="39332_0" index="0" disallow="pedestrian tram rail_urban rail rail_electric rail_fast ship" speed="36.11" length="0.27" width="3.50" customShape="1" shape="640.73,-877.15 640.65,-877.41"/>
    </edge>
    <edge id="39334" from="50" to="51" priority="3" type="highway.residential" spreadType="center" length="6.01" shape="626.01,-934.50 632.98,-890.27">
        <lane id="39334_0" index="0" disallow="pedestrian tram rail_urban rail rail_electric rail_fast ship" speed="36.11" length="6.01" width="3.50" customShape="1" shape="631.88,-914.97 632.79,-912.11 633.71,-909.25"/>
    </edge>
    <edge id="39335" from="51" to="50" priority="3" type="highway.residential" spreadType="center" length="5.98" shape="629.52,-889.73 622.56,-933.96">
        <lane id="39335_0" index="0" disallow="pedestrian tram rail_urban rail rail_electric rail_fast ship" speed="36.11" length="5.98" width="3.50" customShape="1" shape="630.37,-908.21 629.46,-911.04 628.54,-913.90"/>
    </edge>
    <edge id="39381" from="50" to="28" priority="3" type="highway.residential" spreadType="center" length="15.01" shape="625.03,-932.65 592.10,-919.12">
        <lane id="39381_0" index="0" disallow="pedestrian tram rail_urban rail rail_electric rail_fast ship" speed="36.11" length="15.01" width="3.50" customShape="1" shape="606.07,-924.60 599.09,-921.86 592.10,-919.12"/>
    </edge>
    <edge id="39382" from="39" to="50" priority="3" type="highway.residential" spreadType="center" length="13.52" shape="590.82,-922.37 623.70,-935.88">
        <lane id="39382_0" index="0" disallow="pedestrian tram rail_urban rail rail_electric rail_fast ship" speed="36.11" length="13.52" width="3.50" customShape="1" shape="592.22,-922.92 597.81,-925.12 604.80,-927.86"/>
    </edge>
    <edge id="39441" from="51" to="11" priority="3" type="highway.residential" spreadType="center" length="33.08" shape="632.02,-888.50 589.41,-869.37">
        <lane id="39441_0" index="0" disallow="pedestrian tram rail_urban rail rail_electric rail_fast ship" speed="36.11" length="33.08" width="3.50" customShape="1" shape="620.02,-881.91 604.73,-875.64 589.41,-869.37"/>
    </edge>
    <edge id="39442" from="24" to="51" priority="3" type="highway.residential" spreadType="center" length="33.10" shape="588.08,-872.61 630.58,-891.69">
        <lane id="39442_0" index="0" disallow="pedestrian tram rail_urban rail rail_electric rail_fast ship" speed="36.11" length="33.10" width="3.50" customShape="1" shape="588.08,-872.61 603.40,-878.88 618.71,-885.15"/>
    </edge>
    <edge id="39471" from="46" to="53" priority="3" type="highway.residential" spreadType="center" length="80.66">
        <lane id="39471_0" index="0" disallow="pedestrian tram rail_urban rail rail_electric rail_fast ship" speed="36.11" length="80.66" width="3.50" customShape="1" shape="757.58,-987.26 683.22,-956.00"/>
    </edge>
    <edge id="39472" from="37" to="41" priority="3" type="highway.residential" spreadType="center" length="68.52">
        <lane id="39472_0" index="0" disallow="pedestrian tram rail_urban rail rail_electric rail_fast ship" speed="36.11" length="68.52" width="3.50" customShape="1" shape="693.07,-963.94 756.24,-990.49"/>
    </edge>
    <edge id="39717" from="28" to="38" priority="3" type="highway.residential" spreadType="center" length="26.05">
        <lane id="39717_0" index="0" disallow="pedestrian tram rail_urban rail rail_electric rail_fast ship" speed="36.11" length="26.05" width="3.50" customShape="1" shape="592.10,-919.12 579.28,-914.09 567.85,-909.61"/>
    </edge>
    <edge id="39796" from="43" to="39" priority="3" type="highway.residential" spreadType="center" length="24.55">