<routes>
	<vehicle depart="0.1" departLane="0" departPos="21.666980251724404" departSpeed="4.7381745" id="358" type="bicycle">
		<route edges="5433 5493"/>
	</vehicle>
	<vehicle depart="0.1" departLane="0" departPos="14.981160849031344" departSpeed="1.6921126" id="329" type="bus">
		<route edges="4694 5490"/>
	</vehicle>
	<vehicle depart="0.1" departLane="0" departPos="15.777717523514385" departSpeed="0.0" id="32" type="passenger">
		<route edges="6023 8335"/>
	</vehicle>
	<vehicle depart="0.1" departLane="0" departPos="7.5221894425913245" departSpeed="0.0" id="311" type="passenger">
		<route edges=":72_3 5490"/>
	</vehicle>
	<vehicle depart="0.1" departLane="0" departPos="17.056144361579456" departSpeed="0.0" id="332" type="passenger">
		<route edges=":74_4 5492"/>
	</vehicle>
	<vehicle depart="0.1" departLane="0" departPos="8.953313826583017" departSpeed="1.9822932" id="367" type="passenger">
		<route edges=":71_5 5493"/>
	</vehicle>
	<vehicle depart="0.1" departLane="0" departPos="18.95066838760819" departSpeed="5.3463074" id="369" type="passenger">
		<route edges="5433 5493"/>
	</vehicle>
	<vehicle depart="0.1" departLane="0" departPos="5.2822554879540204" departSpeed="1.1326419" id="371" type="passenger">
		<route edges="5433 5489"/>
	</vehicle>
	<vehicle depart="0.1" departLane="0" departPos="1.25" departSpeed="5.8660692" id="33" type="motorcycle">
		<route edges=":71_2 5493 8335"/>
	</vehicle>
	<vehicle depart="0.1" departLane="0" departPos="25.779259203302278" departSpeed="0.0" id="335" type="truck">
		<route edges="6023 8335"/>
	</vehicle>
</routes>
