<routes>
	<vehicle depart="0.1" departLane="0" departPos="62.15727825402003" departSpeed="0.0" id="31" type="passenger">
		<route edges="45059 44770"/>
	</vehicle>
	<vehicle depart="0.1" departLane="0" departPos="7.14520550068693" departSpeed="5.9017046" id="310" type="passenger">
		<route edges=":34_0 44773"/>
	</vehicle>
	<vehicle depart="0.1" departLane="0" departPos="54.69757704031112" departSpeed="0.0" id="315" type="passenger">
		<route edges="45059 44770"/>
	</vehicle>
	<vehicle depart="0.1" departLane="0" departPos="69.53777945448778" departSpeed="0.0" id="320" type="passenger">
		<route edges="45059 44770"/>
	</vehicle>
	<vehicle depart="0.1" departLane="0" departPos="12.716627248984143" departSpeed="15.727347" id="342" type="passenger">
		<route edges=":36_4 44774 44777"/>
	</vehicle>
	<vehicle depart="0.1" departLane="0" departPos="63.333200912256125" departSpeed="11.296549" id="349" type="passenger">
		<route edges="44771 44774"/>
	</vehicle>
	<vehicle depart="0.1" departLane="0" departPos="16.281896640022055" departSpeed="6.6472141" id="351" type="passenger">
		<route edges="44771 44774"/>
	</vehicle>
</routes>
