<routes>
	<vehicle depart="0.1" departLane="0" departPos="10.253748523076448" departSpeed="0.54042982" id="38" type="passenger">
		<route edges=":60_0 8699"/>
	</vehicle>
	<vehicle depart="0.1" departLane="0" departPos="14.176892178257285" departSpeed="11.404605" id="310" type="passenger">
		<route edges=":60_4 8986 8829"/>
	</vehicle>
	<vehicle depart="0.1" departLane="0" departPos="15.234068439904307" departSpeed="8.1875653" id="311" type="passenger">
		<route edges=":58_2 8698 8986"/>
	</vehicle>
	<vehicle depart="0.1" departLane="0" departPos="66.5782750978694" departSpeed="0.64365773" id="314" type="passenger">
		<route edges="8746 8699"/>
	</vehicle>
	<vehicle depart="0.1" departLane="0" departPos="25.876899327831683" departSpeed="1.7971757" id="322" type="passenger">
		<route edges=":58_0 8702"/>
	</vehicle>
	<vehicle depart="0.1" departLane="0" departPos="12.153379781536893" departSpeed="0.30803942" id="326" type="passenger">
		<route edges=":60_3 8699"/>
	</vehicle>
	<vehicle depart="0.1" departLane="0" departPos="9.062121880633294" departSpeed="11.806869" id="334" type="passenger">
		<route edges=":58_4 8934 8739"/>
	</vehicle>
	<vehicle depart="0.1" departLane="0" departPos="3.8121828892512397" departSpeed="10.911558" id="336" type="motorcycle">
		<route edges=":58_5 8698 8986"/>
	</vehicle>
</routes>
