<routes>
	<vehicle depart="0.1" departLane="0" departPos="11.506251342426472" departSpeed="0.53948959" id="310" type="bicycle">
		<route edges=":32_5 20936"/>
	</vehicle>
	<vehicle depart="0.1" departLane="0" departPos="26.588752198405086" departSpeed="0.11148147" id="39" type="passenger">
		<route edges=":32_5 20936"/>
	</vehicle>
	<vehicle depart="0.1" departLane="0" departPos="2.5" departSpeed="0.96913482" id="313" type="passenger">
		<route edges=":32_5 20936"/>
	</vehicle>
	<vehicle depart="0.1" departLane="0" departPos="24.667545381893063" departSpeed="1.7237133" id="322" type="passenger">
		<route edges="20835 20838"/>
	</vehicle>
	<vehicle depart="0.1" departLane="0" departPos="15.757781363963012" departSpeed="0.093782044" id="330" type="passenger">
		<route edges="20835 20838"/>
	</vehicle>
	<vehicle depart="0.1" departLane="0" departPos="66.04422451532182" departSpeed="13.702606" id="335" type="passenger">
		<route edges="20837 20834"/>
	</vehicle>
	<vehicle depart="0.1" departLane="0" departPos="42.68340577654572" departSpeed="11.180629" id="339" type="passenger">
		<route edges="20837 20834"/>
	</vehicle>
	<vehicle depart="0.1" departLane="0" departPos="24.548036039365098" departSpeed="7.2358885" id="341" type="passenger">
		<route edges="20837 20936"/>
	</vehicle>
</routes>
