<!-- generated on 2020-12-18 15:54:50.311048 by ipykernel_launcher.py v1_2_0+5214-53edc58fcd
-->
<edges>
	<edge from="1" function="normal" id="20" length="75.19570247475335" numLanes="5" priority="1" speed="36.11111111111111" spreadType="center" to="2">
		<lane allow="moped bicycle pedestrian custom1 trailer evehicle rail_urban ship private vip custom2 authority delivery rail_electric taxi tram army hov coach motorcycle passenger rail emergency" index="0" length="75.19570247475335" shape="-25.789749999999998,24.86055 -23.67905,22.88865 -20.84135,20.12455 -16.30175,15.87855 -12.7836,12.6342 -9.8781,9.940100000000001 -2.0661,2.82335 -1.48585,2.2857 0.8758999999999999,0.11404999999999998 8.1828,-6.5012 8.9822,-7.2336 11.9014,-9.949850000000001 14.96365,-12.699100000000001 19.77705,-16.8683 22.72455,-19.513199999999998 24.27295,-20.852649999999997 30.211100000000002,-26.01665 30.22055,-26.0249" speed="36.11111111111111" width="3.5047820959369207"/>
		<lane allow="moped bicycle pedestrian custom1 trailer evehicle rail_urban ship private vip custom2 authority delivery rail_electric taxi tram army hov coach motorcycle passenger rail emergency" index="1" length="75.19570247475335" shape="-23.415149999999997,27.39215 -23.338549999999998,27.3211 -21.28525,25.3495 -20.545499999999997,24.60975 -18.549799999999998,22.705199999999998 -12.54565,17.19855 -10.3981,15.207249999999998 -9.64135,14.5016 -7.5153,12.538450000000001 -1.8624,7.4101 0.34275,5.3894 1.03145,4.74725 3.20955,2.7585499999999996 9.3433,-2.75575 11.4141,-4.65705 12.2364,-5.42385 14.27485,-7.280899999999999 20.0988,-12.4 22.13495,-14.23315 22.985300000000002,-15.0261 24.98475,-16.83295 31.097700000000003,-22.1607 32.4959,-23.4179" speed="36.11111111111111" width="3.250550685653123"/>
		<lane allow="moped bicycle pedestrian custom1 trailer evehicle rail_urban ship private vip custom2 authority delivery rail_electric taxi tram army hov coach motorcycle passenger rail emergency" index="2" length="75.19570247475335" shape="-21.149299999999997,29.8078 -21.100299999999997,29.7622 -18.2854,27.0562 -16.03065,24.98265 -13.1665,22.249200000000002 -10.3032,19.65665 -7.3963,16.99355 -4.7857,14.624500000000001 -1.8746,11.93655 0.37140000000000006,9.8904 3.27515,7.21905 6.002549999999999,4.761699999999999 8.92825,2.09035 11.57385,-0.27874999999999994 14.47405,-2.93085 17.0379,-5.2224 19.966450000000002,-7.8903 22.229950000000002,-9.85685 25.15775,-12.458549999999999 27.9206,-14.84355 30.859299999999998,-17.499299999999998 33.2988,-19.64215 34.6903,-20.90365" speed="36.11111111111111" width="3.189710972799889"/>
		<lane allow="moped bicycle pedestrian custom1 trailer evehicle rail_urban ship private truck vip custom2 authority delivery rail_electric taxi tram army hov coach motorcycle passenger rail emergency" index="3" length="75.19570247475335" shape="-18.878349999999998,32.22895 -13.749649999999999,27.450850000000003 -13.73715,27.43835 -10.94735,24.7457 -10.7677,24.5779 -2.77675,17.3258 -2.5139,17.08455 0.10134999999999994,14.645800000000001 0.36465,14.4023 8.071449999999999,7.36985 8.241249999999999,7.2134 10.953949999999999,4.6838 11.0872,4.562250000000001 19.09735,-2.6056 19.27445,-2.76795 21.97285,-5.28425 22.094450000000002,-5.3941 30.13165,-12.315850000000001 30.21595,-12.392 33.06995,-15.05115 33.18815,-15.157399999999999 36.9074,-18.3634" speed="36.11111111111111" width="3.2118758662189935"/>
		<lane allow="moped bicycle pedestrian custom1 trailer evehicle rail_urban ship private truck vip custom2 authority delivery rail_electric taxi tram army hov coach motorcycle passenger bus rail emergency" index="4" length="75.19570247475335" shape="-16.51915,34.7441 -11.3028,29.85125 -11.0175,29.58445 -8.408999999999999,27.15195 -8.106,26.8722 -0.46054999999999996,19.8776 -0.16980000000000006,19.609099999999998 2.4509,17.16535 2.7521,16.8869 10.375399999999999,9.894400000000001 10.6659,9.6257 13.285,7.18355 13.60595,6.891350000000001 21.3838,-0.04994999999999994 21.67615,-0.31665 24.313200000000002,-2.77455 24.649549999999998,-3.07695 32.5,-9.936150000000001 32.7937,-10.20125 35.4448,-12.671050000000001 35.807550000000006,-12.9898 39.1429,-15.80205" speed="36.11111111111111" width="3.479396558312949"/>
	</edge>
	<edge from="2" function="normal" id="16" length="100.16098740615608" numLanes="6" priority="1" speed="36.11111111111111" spreadType="center" to="3">
		<lane allow="moped bicycle pedestrian custom1 trailer evehicle rail_urban ship private truck vip custom2 authority delivery rail_electric taxi tram army hov coach motorcycle passenger rail emergency" index="0" length="100.16098740615608" shape="27.7543,-28.8506 29.91855,-30.7056 30.64195,-31.35145 33.311800000000005,-33.66545 34.03515,-34.3113 36.73725,-36.6896 37.4606,-37.335499999999996 40.178,-39.72410000000001 40.90135,-40.36995 43.5712,-42.684 44.2946,-43.32985 45.021550000000005,-43.96105 47.02505,-45.703450000000004 47.74795,-46.349900000000005 50.4314,-48.71065 51.1543,-49.3571 53.90645000000001,-51.7555 54.62935,-52.40195 57.201049999999995,-54.6279 57.9239,-55.27435 60.64075,-57.6059 61.36365,-58.2523 64.20755,-60.7633 64.93045000000001,-61.40975 67.5895,-63.762750000000004 68.3124,-64.4092 71.12545,-66.8309 71.84835000000001,-67.4773 74.47865,-69.7793 75.2015,-70.42575 77.9094,-72.79429999999999 78.55395,-73.3712 78.63579999999999,-73.44355 81.46095,-75.82515000000001 82.18455,-76.4707 84.80535,-78.82749999999999 85.529,-79.473 88.1999,-81.78604999999999 88.9235,-82.4316 91.71635,-84.87950000000001 92.43995000000001,-85.52505 94.9502,-87.68805 95.67384999999999,-88.33359999999999 98.44885,-90.75895 99.17245,-91.40450000000001 101.86905,-93.66605000000001 102.5927,-94.31165 103.13585,-94.79825" speed="36.11111111111111" width="3.684874137606332"/>
		<lane allow="moped bicycle pedestrian custom1 trailer evehicle rail_urban ship private vip custom2 authority delivery rail_electric taxi tram army hov coach motorcycle passenger rail emergency" index="1" length="100.16098740615608" shape="30.22055,-26.0249 30.8264,-26.54175 32.40695,-27.94475 33.11985,-28.6023 33.759,-29.17275 35.603750000000005,-30.69885 36.25835,-31.2536 36.3713,-31.3447 36.9636,-31.84355 37.14505,-32.0086 39.23835,-33.9023 39.25985,-33.92205 39.95815,-34.5663 40.051100000000005,-34.6499 42.6145,-36.903850000000006 43.2954,-37.51175 43.3649,-37.572 46.02315,-39.8782 46.6883,-40.4722 46.75175,-40.5275 47.22285,-40.9379 49.49015,-42.9737 50.1297,-43.56355 50.15395,-43.584950000000006 56.2889,-48.863 56.96355,-49.4532 57.0617,-49.53665 57.9697,-50.30965 58.034400000000005,-50.369600000000005 59.7027,-51.85915 60.415549999999996,-52.51675 60.932050000000004,-52.970749999999995 63.0816,-54.8047 63.73665,-55.38695 63.78845,-55.4323 66.62075,-57.91905 67.31115,-58.532300000000006 67.3608,-58.5757 68.9725,-59.9941 70.08070000000001,-61.0062 70.79365,-61.6638 71.94704999999999,-62.6853 73.54265000000001,-64.04464999999999 74.18684999999999,-64.61465 74.2564,-64.67484999999999 76.8852,-66.95320000000001 77.55369999999999,-67.54425 77.6251,-67.606 79.94640000000001,-69.6168 79.96745,-69.6352 80.3586,-69.97579999999999 81.08905,-70.6262 83.0273,-72.2562 83.9194,-73.01095000000001 84.58670000000001,-73.60725 87.1824,-75.9449 87.2321,-75.98885 87.92685,-76.6107 87.99674999999999,-76.6713 90.65355,-78.97749999999999 90.80025,-79.10804999999999 91.3064,-79.55969999999999 91.36345,-79.60965 93.8589,-81.79425 94.185,-82.0836 94.9048,-82.7336 97.4015,-84.9114 98.0932,-85.53605 98.13525000000001,-85.5731 100.8815,-88.00345 101.60130000000001,-88.65344999999999 102.55135,-89.457 104.2757,-90.90235000000001 104.9365,-91.49085 105.396,-91.90055 105.5758,-92.06045" speed="36.11111111111111" width="3.5043532142179985"/>
		<lane allow="moped bicycle pedestrian custom1 trailer evehicle rail_urban ship private vip custom2 authority delivery rail_electric taxi tram army hov coach motorcycle passenger rail emergency" index="2" length="100.16098740615608" shape="32.4959,-23.4179 33.10185,-23.964 33.98415,-24.7868 35.86025,-26.454749999999997 36.0231,-26.587699999999998 39.39475,-29.358 41.919,-31.5961 42.0259,-31.69475 42.3956,-32.0353 42.45195,-32.085049999999995 45.01885,-34.40275 49.47815,-38.2513 52.34785,-40.80855 52.4658,-40.90925 53.1036,-41.453599999999994 53.179950000000005,-41.524 56.07715,-44.0878 60.26205,-47.6423 63.10685,-50.1862 63.20425,-50.27035 64.2097,-51.1399 67.16005000000001,-53.7912 71.2681,-57.314350000000005 74.12755,-59.858599999999996 74.23949999999999,-59.95445 75.35315,-60.9093 75.41225,-60.964 78.3099,-63.554500000000004 82.2756,-67.02420000000001 85.24945,-69.64250000000001 86.37245,-70.6344 89.35055,-73.23185 93.1653,-76.56165 96.16105,-79.1678 97.26855,-80.14455000000001 100.23845,-82.76235 104.76435000000001,-86.76565 104.79485,-86.79220000000001 107.77635,-89.3934 107.87595,-89.4796" speed="36.11111111111111" width="3.2168796822386825"/>
		<lane allow="moped bicycle pedestrian custom1 trailer evehicle rail_urban ship private truck vip custom2 authority delivery rail_electric taxi tram army hov coach motorcycle passenger rail emergency" index="3" length="100.16098740615608" shape="34.6903,-20.90365 36.161,-22.2367 36.261250000000004,-22.32295 39.137550000000005,-24.8076 42.0997,-27.4371 44.23505,-29.2417 47.0717,-31.7609 47.19025,-31.8617 50.203050000000005,-34.42335 53.16095,-37.060050000000004 55.3029,-38.9097 58.1641,-41.4945 58.2549,-41.57315 61.3184,-44.22945 64.27145,-46.8701 66.31335,-48.59285 69.17615,-51.11085 69.30825,-51.22175 72.44395,-53.860200000000006 75.40415,-56.49485 77.56875,-58.35525 80.4253,-60.927800000000005 80.4963,-60.9902 83.67615,-63.7921 86.60419999999999,-66.46215 88.48745,-68.1138 88.52445,-68.14585 91.51465,-70.73515 94.7354,-73.5256 94.7466,-73.5354 97.7371,-76.1369 99.50935,-77.6994 102.48255,-80.3183 105.6779,-83.14275 108.66385,-85.7475 110.083,-87.00315" speed="36.11111111111111" width="3.1175293182262114"/>
		<lane allow="moped bicycle pedestrian custom1 trailer evehicle rail_urban ship private vip custom2 authority delivery rail_electric taxi tram army hov coach motorcycle passenger rail emergency" index="4" length="100.16098740615608" shape="36.9074,-18.3634 41.21615,-22.07745 41.408649999999994,-22.252850000000002 44.080650000000006,-24.744500000000002 44.1418,-24.80155 44.2684,-24.90945 52.4086,-31.8491 52.5775,-32.00195 55.359449999999995,-34.5924 55.520849999999996,-34.73715 63.5299,-41.6142 63.603049999999996,-41.6815 66.38705,-44.2776 74.63635,-51.3262 74.75720000000001,-51.436499999999995 77.57115,-54.0586 77.7011,-54.174350000000004 85.85175000000001,-61.1727 85.96875,-61.27945 88.70765,-63.8335 96.67760000000001,-70.7503 96.95915,-70.99405 99.66445,-73.3457 99.95235,-73.5966 107.7333,-80.467 107.85735,-80.57645 107.89070000000001,-80.60544999999999 110.7675,-83.10665 110.8965,-83.22035 112.321,-84.492" speed="36.11111111111111" width="3.2654832184532734"/>
		<lane allow="moped bicycle pedestrian custom1 trailer evehicle rail_urban ship private vip custom2 authority delivery rail_electric taxi tram army hov coach motorcycle passenger rail emergency" index="5" length="100.16098740615608" shape="39.1429,-15.80205 43.47595,-19.455599999999997 43.70785,-19.65835 43.83285,-19.7746 46.444100000000006,-22.204 46.7965,-22.51745 54.8668,-29.445549999999997 55.108999999999995,-29.6603 55.2122,-29.7564 57.82255,-32.18675 58.18795,-32.50775 65.82495,-38.942049999999995 66.05645,-39.1443 66.18235,-39.261399999999995 68.79365,-41.690749999999994 69.12935,-41.9935 77.02615,-48.9288 77.2813,-49.158649999999994 77.35665,-49.22885 79.9661,-51.66015 80.3259,-51.97755 88.09295,-58.5621 88.32795,-58.76845 88.44635,-58.878699999999995 91.0574,-61.308350000000004 91.3978,-61.614149999999995 98.9162,-68.17115 99.3046,-68.50935 101.90424999999999,-70.76915 102.2852,-71.1011 110.05765,-77.89035 110.44489999999999,-78.22775 113.04454999999999,-80.48765 113.38470000000001,-80.7869 113.4169,-80.81555 114.6323,-81.8987" speed="36.11111111111111" width="3.4791584298505245"/>
	</edge>
	<edge from="4" function="normal" id="17" length="75.94788467422921" numLanes="1" priority="1" speed="36.11111111111111" spreadType="center" to="2">
		<lane allow="moped bicycle pedestrian custom1 trailer evehicle rail_urban ship private truck vip custom2 authority delivery rail_electric taxi tram army hov coach motorcycle passenger bus rail emergency" index="0" length="75.94788467422921" shape="-30.7024,19.6231 -29.1543,18.4341 -22.71755,13.297 -17.589399999999998,9.12305 -9.867799999999999,2.8373 -8.213650000000001,1.47065 0.33795,-5.63265 12.183,-15.418050000000001 12.5042,-15.683499999999999 18.36105,-20.66525 21.820999999999998,-23.67015 27.7543,-28.8506" speed="36.11111111111111" width="3.6400067087850263"/>
	</edge>
</edges>
