<!-- generated on 2020-12-18 15:54:50.408938 by ipykernel_launcher.py v1_2_0+5214-53edc58fcd
-->
<nodes>
	<node id="1" type="from" x="-21.150339999999996" y="29.80671"/>
	<node id="2" type="to" x="34.69141" y="-20.90238"/>
	<node id="3" type="to" x="108.93731666666667" y="-88.28869166666668"/>
	<node id="4" type="from" x="-30.7024" y="19.6231"/>
</nodes>
