<!-- generated on 2020-12-18 15:39:41.888693 by ipykernel_launcher.py v1_2_0+5214-53edc58fcd
-->
<edges>
	<edge from="1" function="normal" id="64" length="146.63037712441331" numLanes="5" priority="1" speed="36.11111111111111" spreadType="center" to="2">
		<lane allow="pedestrian rail private passenger ship delivery vip emergency bicycle rail_electric army rail_urban trailer coach custom2 tram taxi evehicle custom1 motorcycle authority hov moped" index="0" length="146.63037712441331" shape="-20.595,-7.050000000000001 8.315,-7.5 9.855,-7.525 12.325,-7.539999999999999 23.125,-7.414999999999999 27.085,-7.445 39.795,-7.21 53.37,-6.75 57.325,-6.58 68.015,-6.050000000000001 69.965,-5.965 72.055,-5.85 82.705,-5.095 86.66,-4.875 96.895,-4.065 100.85,-3.84 107.045,-3.3550000000000004 111.815,-2.95 115.765,-2.62 126.285,-1.655 127.08000000000001,-1.5950000000000002 127.24000000000001,-1.58" speed="36.11111111111111" width="3.4101319622560067"/>
		<lane allow="pedestrian rail private passenger ship delivery vip emergency bicycle rail_electric army rail_urban trailer coach custom2 tram taxi evehicle custom1 motorcycle authority hov moped" index="1" length="146.63037712441331" shape="-20.53,-3.575 -19.814999999999998,-3.585 5.42,-3.9800000000000004 8.379999999999999,-4.04 9.365,-4.0649999999999995 12.239999999999998,-4.095 20.185000000000002,-4.015000000000001 23.15,-4.025 24.08,-4.055 26.92,-4.045 53.25,-3.2800000000000002 57.209999999999994,-3.1350000000000002 64.43,-2.81 67.895,-2.6350000000000002 68.37,-2.61 71.72999999999999,-2.4 79.30000000000001,-1.8399999999999999 82.505,-1.655 83.215,-1.625 86.355,-1.435 93.85,-0.825 96.695,-0.64 97.74000000000001,-0.5900000000000001 100.495,-0.405 108.61,0.31000000000000005 111.525,0.5499999999999999 112.555,0.6349999999999999 115.44,0.8800000000000001 123.035,1.5899999999999999 126.015,1.85 126.935,1.92" speed="36.11111111111111" width="3.2030610359467087"/>
		<lane allow="pedestrian rail private passenger ship delivery vip emergency bicycle rail_electric army rail_urban trailer coach custom2 tram taxi evehicle custom1 motorcycle authority hov moped" index="2" length="146.63037712441331" shape="-20.475,-0.29499999999999993 -19.925,-0.29500000000000004 -17.435000000000002,-0.30000000000000004 -13.385,-0.38 -2.605,-0.57 1.355,-0.6449999999999999 5.37,-0.6549999999999999 9.285,-0.685 12.14,-0.6649999999999999 16.105,-0.7000000000000001 20.08,-0.6499999999999999 23.93,-0.6599999999999999 27.055,-0.5850000000000001 31.02,-0.5750000000000001 41.595,-0.16499999999999992 45.555,-0.15500000000000003 56.209999999999994,0.29000000000000004 60.17,0.29999999999999993 64.1,0.4950000000000001 68.095,0.7200000000000001 70.89500000000001,0.925 74.845,1.17 79.06,1.495 82.93,1.715 85.535,1.9100000000000001 89.485,2.15 93.555,2.4749999999999996 97.39,2.72 100.50999999999999,2.995 104.455,3.26 108.305,3.62 112.2,3.965 115.745,4.295 119.69,4.635 122.71000000000001,4.91 126.625,5.245 126.64500000000001,5.245" speed="36.11111111111111" width="3.193195891266302"/>
		<lane allow="pedestrian rail private passenger ship delivery vip emergency bicycle rail_electric army rail_urban trailer coach custom2 tram taxi evehicle custom1 motorcycle authority hov moped" index="3" length="146.63037712441331" shape="-20.415,3.135 -17.83,3.1149999999999998 -17.759999999999998,3.12 -17.29,3.1100000000000003 -13.920000000000002,3.0300000000000002 -13.335,3.015 -3.25,2.8 -2.535,2.7800000000000002 0.7,2.705 1.31,2.6950000000000003 11.415,2.77 12.170000000000002,2.77 15.32,2.69 15.97,2.69 26.575,2.9 27.045,2.9 30.46,2.81 30.869999999999997,2.81 41.205,3.125 41.58,3.125 45.05,3.0349999999999997 55.879999999999995,3.6149999999999998 56.2,3.615 59.72,3.525 70.61500000000001,4.3 70.92,4.315 74.63499999999999,4.485 74.975,4.51 85.25999999999999,5.28 85.485,5.295 89.28999999999999,5.465 89.575,5.485 100.22999999999999,6.345 100.245,6.34 104.11500000000001,6.58 104.36,6.605 115.10499999999999,7.6049999999999995 115.465,7.630000000000001 119.025,7.92 119.38499999999999,7.95 126.35,8.58" speed="36.11111111111111" width="3.1310221973023444"/>
		<lane allow="pedestrian rail private passenger ship delivery vip emergency bicycle rail_electric army rail_urban trailer coach custom2 tram taxi evehicle custom1 motorcycle authority truck hov moped" index="4" length="146.63037712441331" shape="-20.35,6.65 -17.805,6.6049999999999995 -17.775,6.6049999999999995 -13.835,6.5 -13.8,6.5 -3.18,6.2749999999999995 -3.1550000000000002,6.2749999999999995 0.7849999999999999,6.175000000000001 0.875,6.17 11.385,6.255 11.399999999999999,6.26 15.405,6.154999999999999 15.515,6.16 26.5,6.395 26.515,6.395 30.545,6.295 30.64,6.300000000000001 41.105000000000004,6.460000000000001 41.12,6.460000000000001 45.135000000000005,6.365 45.31,6.375 55.695,6.975 55.71,6.975 59.8,6.885 60.01,6.905 70.765,7.74 71.03999999999999,7.755 74.78,7.925 75.11500000000001,7.945 85.33500000000001,8.76 85.60499999999999,8.78 89.35,8.94 89.685,8.965 100.10499999999999,9.77 100.5,9.795 104.055,10.085 104.465,10.114999999999998 114.785,11.03 115.18,11.065000000000001 118.755,11.355 119.16499999999999,11.385000000000002 126.045,11.995000000000001" speed="36.11111111111111" width="3.4937801877050028"/>
	</edge>
</edges>
