<!-- generated on 2020-12-18 15:39:41.955972 by ipykernel_launcher.py v1_2_0+5214-53edc58fcd
-->
<nodes>
	<node id="1" type="from" x="-20.473000000000003" y="-0.22699999999999995"/>
	<node id="2" type="to" x="126.643" y="5.232"/>
</nodes>
