<routes>
	<vehicle depart="0.1" departLane="4" departPos="42.19978021520393" departSpeed="12.32" id="27" type="passenger">
		<route edges="64"/>
	</vehicle>
	<vehicle depart="0.1" departLane="3" departPos="58.01432246481028" departSpeed="10.61" id="32" type="passenger">
		<route edges="64"/>
	</vehicle>
	<vehicle depart="0.1" departLane="1" departPos="39.28761587358105" departSpeed="13.72" id="34" type="passenger">
		<route edges="64"/>
	</vehicle>
	<vehicle depart="0.1" departLane="0" departPos="39.04879235745434" departSpeed="9.48" id="35" type="passenger">
		<route edges="64"/>
	</vehicle>
	<vehicle depart="0.1" departLane="4" departPos="33.37840549218252" departSpeed="12.43" id="39" type="passenger">
		<route edges="64"/>
	</vehicle>
	<vehicle depart="0.1" departLane="1" departPos="0" departSpeed="13.73" id="40" type="passenger">
		<route edges="64"/>
	</vehicle>
	<vehicle depart="0.1" departLane="4" departPos="17.060572228223396" departSpeed="12.19" id="43" type="passenger">
		<route edges="64"/>
	</vehicle>
	<vehicle depart="0.1" departLane="2" departPos="34.648409011069624" departSpeed="10.82" id="47" type="passenger">
		<route edges="64"/>
	</vehicle>
	<vehicle depart="0.1" departLane="0" departPos="56.28987523421563" departSpeed="9.37" id="48" type="passenger">
		<route edges="64"/>
	</vehicle>
	<vehicle depart="0.1" departLane="1" departPos="0" departSpeed="16.73" id="51" type="passenger">
		<route edges="64"/>
	</vehicle>
	<vehicle depart="0.1" departLane="0" departPos="48.19048717955708" departSpeed="10.5" id="53" type="passenger">
		<route edges="64"/>
	</vehicle>
	<vehicle depart="0.1" departLane="3" departPos="27.039948524419337" departSpeed="10.59" id="56" type="passenger">
		<route edges="64"/>
	</vehicle>
	<vehicle depart="0.1" departLane="0" departPos="31.101108687411738" departSpeed="12.15" id="60" type="passenger">
		<route edges="64"/>
	</vehicle>
</routes>
