<routes>
	<vehicle depart="0.1" departLane="0" departPos="9.963492263630656" departSpeed="3.1562981" id="313" type="passenger">
		<route edges=":84_4 297 294"/>
	</vehicle>
	<vehicle depart="0.1" departLane="0" departPos="8.257336028725845" departSpeed="18.586861" id="337" type="passenger">
		<route edges=":81_3 294 291 1428"/>
	</vehicle>
</routes>
