<!-- generated on Tue Feb  9 22:15:45 2021 by Eclipse SUMO netconvert Version 1.8.0
<configuration xmlns:xsi="http://www.w3.org/2001/XMLSchema-instance" xsi:noNamespaceSchemaLocation="http://sumo.dlr.de/xsd/netconvertConfiguration.xsd">

    <input>
        <node-files value="./converted_scenarios/scenario-factory/DEU_Meckenheim-4_6_I-1-1/DEU_Meckenheim-4_6_I-1-1.nod.xml"/>
        <edge-files value="./converted_scenarios/scenario-factory/DEU_Meckenheim-4_6_I-1-1/DEU_Meckenheim-4_6_I-1-1.edg.xml"/>
        <connection-files value="./converted_scenarios/scenario-factory/DEU_Meckenheim-4_6_I-1-1/DEU_Meckenheim-4_6_I-1-1.con.xml"/>
        <tllogic-files value="./converted_scenarios/scenario-factory/DEU_Meckenheim-4_6_I-1-1/DEU_Meckenheim-4_6_I-1-1.tll.xml"/>
        <type-files value="/home/zen/commonroad-interactive-benchmarks/install/commonroad-map-tool/crmapconverter/sumo_map/templates/DEU.typ.xml"/>
    </input>

    <output>
        <output-file value="./converted_scenarios/scenario-factory/DEU_Meckenheim-4_6_I-1-1/DEU_Meckenheim-4_6_I-1-1.net.xml"/>
    </output>

    <processing>
        <geometry.remove.keep-edges.explicit value="true"/>
        <geometry.avoid-overlap value="true"/>
        <offset.disable-normalization value="true"/>
    </processing>

    <junctions>
        <no-turnarounds value="true"/>
        <junctions.internal-link-detail value="20"/>
    </junctions>

    <report>
        <aggregate-warnings value="5"/>
    </report>

    <random_number>
        <seed value="1234"/>
    </random_number>

</configuration>
--><net xmlns:xsi="http://www.w3.org/2001/XMLSchema-instance" version="1.6" junctionCornerDetail="5" junctionLinkDetail="20" limitTurnSpeed="5.50" xsi:noNamespaceSchemaLocation="http://sumo.dlr.de/xsd/net_file.xsd">

    <location netOffset="0.00,0.00" convBoundary="70.54,492.82,404.72,683.41" origBoundary="70.54,480.36,404.72,683.41" projParameter="!"/>

    <type id="highway.bridleway" priority="1" speed="2.78" allow="pedestrian" oneway="1" width="2.00"/>
    <type id="highway.bus_guideway" priority="1" speed="27.78" allow="bus" oneway="1"/>
    <type id="highway.cycleway" priority="1" speed="8.33" allow="bicycle" oneway="0" width="1.00"/>
    <type id="highway.footway" priority="1" speed="2.78" allow="pedestrian" oneway="1" width="2.00"/>
    <type id="highway.ford" priority="1" speed="2.78" allow="army" oneway="0"/>
    <type id="highway.living_street" priority="2" speed="2.78" disallow="tram rail_urban rail rail_electric rail_fast ship" oneway="0"/>
    <type id="highway.motorway" priority="14" speed="39.44" allow="private emergency authority army vip passenger hov taxi bus coach delivery truck trailer motorcycle evehicle custom1 custom2" oneway="1"/>
    <type id="highway.motorway_link" priority="9" speed="22.22" allow="private emergency authority army vip passenger hov taxi bus coach delivery truck trailer motorcycle evehicle custom1 custom2" oneway="1"/>
    <type id="highway.path" priority="1" speed="2.78" allow="pedestrian bicycle" oneway="0" width="2.00"/>
    <type id="highway.pedestrian" priority="1" speed="2.78" allow="pedestrian" oneway="1" width="2.00"/>
    <type id="highway.primary" priority="12" speed="27.78" disallow="pedestrian tram rail_urban rail rail_electric rail_fast ship" oneway="0"/>
    <type id="highway.primary_link" priority="7" speed="22.22" disallow="pedestrian tram rail_urban rail rail_electric rail_fast ship" oneway="0"/>
    <type id="highway.raceway" priority="15" speed="83.33" allow="vip" oneway="0"/>
    <type id="highway.residential" priority="3" speed="13.89" disallow="pedestrian tram rail_urban rail rail_electric rail_fast ship" oneway="0"/>
    <type id="highway.secondary" priority="11" speed="27.78" disallow="pedestrian tram rail_urban rail rail_electric rail_fast ship" oneway="0"/>
    <type id="highway.secondary_link" priority="6" speed="22.22" disallow="pedestrian tram rail_urban rail rail_electric rail_fast ship" oneway="0"/>
    <type id="highway.service" priority="1" speed="5.56" allow="pedestrian delivery bicycle" oneway="0"/>
    <type id="highway.stairs" priority="1" speed="1.39" allow="pedestrian" oneway="1" width="2.00"/>
    <type id="highway.step" priority="1" speed="1.39" allow="pedestrian" oneway="1" width="2.00"/>
    <type id="highway.steps" priority="1" speed="1.39" allow="pedestrian" oneway="1" width="2.00"/>
    <type id="highway.tertiary" priority="10" speed="22.22" disallow="pedestrian tram rail_urban rail rail_electric rail_fast ship" oneway="0"/>
    <type id="highway.tertiary_link" priority="5" speed="22.22" disallow="pedestrian tram rail_urban rail rail_electric rail_fast ship" oneway="0"/>
    <type id="highway.track" priority="1" speed="5.56" allow="pedestrian motorcycle moped bicycle" oneway="0"/>
    <type id="highway.trunk" priority="13" speed="27.78" disallow="pedestrian bicycle tram rail_urban rail rail_electric rail_fast ship" oneway="0"/>
    <type id="highway.trunk_link" priority="8" speed="22.22" disallow="pedestrian bicycle tram rail_urban rail rail_electric rail_fast ship" oneway="0"/>
    <type id="highway.unclassified" priority="4" speed="13.89" disallow="pedestrian tram rail_urban rail rail_electric rail_fast ship" oneway="0"/>
    <type id="highway.unsurfaced" priority="1" speed="8.33" disallow="tram rail_urban rail rail_electric rail_fast ship" oneway="0"/>
    <type id="railway.highspeed" priority="21" speed="69.44" allow="rail_fast" oneway="1"/>
    <type id="railway.light_rail" priority="19" speed="27.78" allow="rail_urban" oneway="1"/>
    <type id="railway.preserved" priority="16" speed="27.78" allow="rail" oneway="1"/>
    <type id="railway.rail" priority="20" speed="44.44" allow="rail" oneway="1"/>
    <type id="railway.subway" priority="18" speed="27.78" allow="rail_urban" oneway="1"/>
    <type id="railway.tram" priority="17" speed="13.89" allow="tram" oneway="1"/>

    <edge id=":81_0" function="internal">
        <lane id=":81_0_0" index="0" disallow="pedestrian tram rail_urban rail rail_electric rail_fast ship" speed="11.87" length="28.83" width="3.50" shape="236.37,673.59 236.31,671.39 236.08,669.23 235.66,667.13 235.02,665.11 234.15,663.21 233.03,661.47 231.67,659.91 230.10,658.56 228.34,657.41 226.43,656.48 224.41,655.73 222.32,655.16 219.02,654.57"/>
    </edge>
    <edge id=":81_1" function="internal">
        <lane id=":81_1_0" index="0" disallow="pedestrian tram rail_urban rail rail_electric rail_fast ship" speed="11.38" length="29.08" width="3.50" shape="236.37,673.59 236.45,671.07 236.83,667.35 237.33,664.84 238.07,662.35 239.13,659.97 239.83,658.78 240.63,657.67 241.54,656.64 242.57,655.71 243.70,654.89 244.92,654.21 246.19,653.67 247.50,653.26 248.87,652.99 251.46,652.77"/>
    </edge>
    <edge id=":81_2" function="internal">
        <lane id=":81_2_0" index="0" disallow="pedestrian tram rail_urban rail rail_electric rail_fast ship" speed="10.29" length="23.62" width="3.50" shape="251.53,656.27 249.39,656.45 248.34,656.68 247.32,657.02 246.34,657.46 245.43,658.02 244.58,658.68 243.81,659.43 243.13,660.26 242.54,661.15 242.02,662.09 241.21,664.08 240.63,666.14 240.24,668.26 239.93,671.46 239.87,673.61"/>
    </edge>
    <edge id=":81_3" function="internal">
        <lane id=":81_3_0" index="0" disallow="pedestrian tram rail_urban rail rail_electric rail_fast ship" speed="36.11" length="32.58" width="3.50" shape="251.53,656.27 241.03,656.19 231.59,655.77 223.22,655.07 219.02,654.57"/>
    </edge>
    <edge id=":81_4" function="internal">
        <lane id=":81_4_0" index="0" disallow="pedestrian tram rail_urban rail rail_electric rail_fast ship" speed="36.11" length="32.03" width="3.50" shape="219.50,651.11 223.59,651.59 231.83,652.28 241.14,652.69 251.46,652.77"/>
    </edge>
    <edge id=":81_5" function="internal">
        <lane id=":81_5_0" index="0" disallow="pedestrian tram rail_urban rail rail_electric rail_fast ship" speed="12.84" length="33.92" width="3.50" shape="219.50,651.11 223.21,651.77 225.64,652.43 227.99,653.31 230.24,654.42 232.35,655.79 234.25,657.44 235.89,659.34 237.24,661.45 238.29,663.74 239.04,666.13 239.54,668.60 239.80,671.09 239.87,673.61"/>
    </edge>
    <edge id=":82_0" function="internal">
        <lane id=":82_0_0" index="0" disallow="pedestrian tram rail_urban rail rail_electric rail_fast ship" speed="36.11" length="28.95" width="3.50" shape="188.32,646.67 186.24,645.65 182.49,643.49 175.31,638.87 163.98,631.04"/>
    </edge>
    <edge id=":82_1" function="internal">
        <lane id=":82_1_0" index="0" disallow="pedestrian tram rail_urban rail rail_electric rail_fast ship" speed="10.56" length="27.89" width="3.50" shape="188.32,646.67 187.08,646.04 185.98,645.30 185.01,644.40 184.21,643.35 183.60,642.17 183.20,640.91 182.99,639.60 182.95,638.28 183.04,636.96 183.54,634.35 184.33,631.83 185.88,628.16 187.72,624.64 189.06,622.35"/>
    </edge>
    <edge id=":82_2" function="internal">
        <lane id=":82_2_0" index="0" disallow="pedestrian tram rail_urban rail rail_electric rail_fast ship" speed="9.36" length="21.81" width="3.50" shape="192.05,624.17 190.88,626.16 189.26,629.20 187.88,632.32 187.17,634.41 186.67,636.53 186.55,637.53 186.51,638.54 186.59,639.49 186.78,640.37 187.10,641.17 187.54,641.86 188.12,642.47 188.83,643.00 189.70,643.45"/>
    </edge>
    <edge id=":82_3" function="internal">
        <lane id=":82_3_0" index="0" disallow="pedestrian tram rail_urban rail rail_electric rail_fast ship" speed="11.79" length="33.58" width="3.50" shape="192.05,624.17 189.89,627.36 188.22,629.39 186.34,631.26 184.23,632.90 183.04,633.63 181.80,634.25 180.50,634.76 179.15,635.14 177.77,635.38 176.37,635.49 174.98,635.46 173.60,635.30 172.26,635.03 170.92,634.66 168.46,633.68 166.14,632.45 163.98,631.04"/>
    </edge>
    <edge id=":82_4" function="internal">
        <lane id=":82_4_0" index="0" disallow="pedestrian tram rail_urban rail rail_electric rail_fast ship" speed="10.75" length="27.77" width="3.50" shape="165.97,628.17 167.84,629.38 169.80,630.42 171.87,631.23 172.94,631.53 174.02,631.74 175.13,631.86 176.24,631.88 177.35,631.79 178.44,631.58 179.50,631.27 180.54,630.86 181.53,630.36 182.47,629.77 184.22,628.40 185.79,626.83 187.20,625.11 189.06,622.35"/>
    </edge>
    <edge id=":82_5" function="internal">
        <lane id=":82_5_0" index="0" disallow="pedestrian tram rail_urban rail rail_electric rail_fast ship" speed="36.11" length="28.25" width="3.50" shape="165.97,628.17 177.15,635.89 184.17,640.42 187.79,642.51 189.70,643.45"/>
    </edge>
    <edge id=":83_0" function="internal">
        <lane id=":83_0_0" index="0" disallow="pedestrian tram rail_urban rail rail_electric rail_fast ship" speed="13.34" length="29.82" width="3.50" shape="215.27,653.99 212.06,653.62 209.94,653.58 207.81,653.75 205.72,654.13 203.68,654.74 201.72,655.56 199.86,656.60 198.12,657.82 196.50,659.20 195.01,660.72 193.01,663.20 191.25,665.87 190.71,666.78"/>
    </edge>
    <edge id=":83_1" function="internal">
        <lane id=":83_1_0" index="0" disallow="pedestrian tram rail_urban rail rail_electric rail_fast ship" speed="36.11" length="27.80" width="3.50" shape="215.26,654.00 211.05,653.21 203.80,651.64 197.61,650.00 192.52,648.34 188.48,646.74"/>
    </edge>
    <edge id=":83_2" function="internal">
        <lane id=":83_2_0" index="0" disallow="pedestrian tram rail_urban rail rail_electric rail_fast ship" speed="36.11" length="26.93" width="3.50" shape="189.85,643.52 193.75,645.06 198.68,646.66 204.68,648.25 211.77,649.79 215.79,650.54"/>
    </edge>
    <edge id=":83_3" function="internal">
        <lane id=":83_3_0" index="0" disallow="pedestrian tram rail_urban rail rail_electric rail_fast ship" speed="10.42" length="26.73" width="3.50" shape="189.85,643.51 191.09,644.14 192.21,644.86 193.22,645.74 194.08,646.75 194.77,647.90 195.26,649.13 195.56,650.43 195.69,651.76 195.67,653.09 195.30,655.73 194.59,658.31 193.14,662.03 191.36,665.62 190.71,666.78"/>
    </edge>
    <edge id=":83_4" function="internal">
        <lane id=":83_4_0" index="0" disallow="pedestrian tram rail_urban rail rail_electric rail_fast ship" speed="9.22" length="20.74" width="3.50" shape="187.67,665.06 188.22,664.07 189.77,660.98 191.05,657.83 191.68,655.73 192.06,653.59 192.12,652.59 192.09,651.60 191.94,650.67 191.67,649.80 191.28,649.02 190.77,648.33 190.13,647.72 189.37,647.19 188.48,646.74"/>
    </edge>
    <edge id=":83_5" function="internal">
        <lane id=":83_5_0" index="0" disallow="pedestrian tram rail_urban rail rail_electric rail_fast ship" speed="14.24" length="34.06" width="3.50" shape="187.67,665.06 188.28,664.01 190.24,661.05 192.51,658.25 194.22,656.51 196.09,654.93 198.11,653.53 200.27,652.34 202.56,651.39 204.93,650.70 207.35,650.26 209.80,650.08 212.25,650.12 215.79,650.54"/>
    </edge>
    <edge id=":84_0" function="internal">
        <lane id=":84_0_0" index="0" disallow="pedestrian tram rail_urban rail rail_electric rail_fast ship" speed="11.13" length="28.54" width="3.50" shape="284.89,656.06 281.61,656.25 279.44,656.60 277.32,657.17 275.29,658.02 274.33,658.55 273.42,659.16 272.56,659.84 271.77,660.60 271.04,661.43 270.40,662.32 269.83,663.26 268.91,665.25 268.27,667.35 267.86,669.51 267.65,671.70 267.61,673.89"/>
    </edge>
    <edge id=":84_1" function="internal">
        <lane id=":84_1_0" index="0" disallow="pedestrian tram rail_urban rail rail_electric rail_fast ship" speed="36.11" length="33.16" width="3.50" shape="284.89,656.06 268.34,656.16 251.73,656.27"/>
    </edge>
    <edge id=":84_2" function="internal">
        <lane id=":84_2_0" index="0" disallow="pedestrian tram rail_urban rail rail_electric rail_fast ship" speed="36.11" length="33.17" width="3.50" shape="251.68,652.77 268.32,652.66 284.85,652.56"/>
    </edge>
    <edge id=":84_3" function="internal">
        <lane id=":84_3_0" index="0" disallow="pedestrian tram rail_urban rail rail_electric rail_fast ship" speed="11.48" length="30.14" width="3.50" shape="251.68,652.76 254.36,652.91 255.65,653.12 256.92,653.43 258.15,653.86 259.34,654.40 260.47,655.07 261.51,655.86 262.47,656.75 263.33,657.74 264.08,658.80 264.75,659.93 265.81,662.31 266.58,664.81 267.09,667.38 267.51,671.28 267.61,673.89"/>
    </edge>
    <edge id=":84_4" function="internal">
        <lane id=":84_4_0" index="0" disallow="pedestrian tram rail_urban rail rail_electric rail_fast ship" speed="10.37" length="24.56" width="3.50" shape="264.11,673.93 264.03,671.66 263.68,668.26 263.26,666.08 262.65,663.98 261.80,661.98 261.31,661.10 260.73,660.25 260.09,659.46 259.38,658.76 258.60,658.14 257.76,657.61 256.87,657.17 255.92,656.82 254.93,656.56 253.93,656.39 251.73,656.27"/>
    </edge>
    <edge id=":84_5" function="internal">
        <lane id=":84_5_0" index="0" disallow="pedestrian tram rail_urban rail rail_electric rail_fast ship" speed="12.13" length="34.13" width="3.50" shape="264.11,673.93 264.16,671.40 264.41,668.85 264.89,666.30 265.66,663.79 266.76,661.39 267.48,660.21 268.28,659.11 269.18,658.09 270.17,657.15 271.23,656.30 272.36,655.55 273.56,654.88 275.99,653.88 278.52,653.19 281.08,652.78 284.85,652.56"/>
    </edge>
    <edge id=":85_0" function="internal">
        <lane id=":85_0_0" index="0" disallow="pedestrian tram rail_urban rail rail_electric rail_fast ship" speed="10.72" length="27.14" width="3.50" shape="163.74,630.88 161.92,629.70 159.99,628.70 157.96,627.94 156.91,627.67 155.84,627.48 154.75,627.39 153.67,627.40 152.59,627.51 151.52,627.73 150.48,628.04 149.48,628.45 148.51,628.94 146.69,630.13 145.04,631.54 143.54,633.12 141.54,635.69 140.93,636.58"/>
    </edge>
    <edge id=":85_1" function="internal">
        <lane id=":85_1_0" index="0" disallow="pedestrian tram rail_urban rail rail_electric rail_fast ship" speed="36.11" length="31.78" width="3.50" shape="163.74,630.88 155.12,624.74 137.99,612.26"/>
    </edge>
    <edge id=":85_2" function="internal">
        <lane id=":85_2_0" index="0" disallow="pedestrian tram rail_urban rail rail_electric rail_fast ship" speed="36.11" length="31.66" width="3.50" shape="140.09,609.46 157.17,621.90 165.75,628.01"/>
    </edge>
    <edge id=":85_3" function="internal">
        <lane id=":85_3_0" index="0" disallow="pedestrian tram rail_urban rail rail_electric rail_fast ship" speed="11.86" length="30.56" width="3.50" shape="140.09,609.46 142.14,611.19 143.05,612.15 143.89,613.18 144.64,614.28 145.27,615.44 145.79,616.67 146.18,617.94 146.45,619.24 146.58,620.56 146.60,621.89 146.30,624.53 145.66,627.10 144.74,629.60 143.00,633.18 140.93,636.58"/>
    </edge>
    <edge id=":85_4" function="internal">
        <lane id=":85_4_0" index="0" disallow="pedestrian tram rail_urban rail rail_electric rail_fast ship" speed="10.84" length="25.27" width="3.50" shape="137.98,634.69 139.83,631.67 141.37,628.56 142.16,626.46 142.73,624.31 143.02,622.13 143.03,621.10 142.95,620.06 142.77,619.04 142.49,618.05 142.11,617.09 141.64,616.17 141.07,615.30 140.41,614.47 139.70,613.71 137.99,612.26"/>
    </edge>
    <edge id=":85_5" function="internal">
        <lane id=":85_5_0" index="0" disallow="pedestrian tram rail_urban rail rail_electric rail_fast ship" speed="11.76" length="32.88" width="3.50" shape="137.98,634.69 138.73,633.59 141.05,630.64 142.84,628.77 144.83,627.09 147.02,625.67 148.25,625.06 149.52,624.56 150.83,624.18 152.17,623.92 153.53,623.80 154.90,623.80 156.25,623.92 157.57,624.16 158.89,624.51 161.32,625.44 163.62,626.63 165.75,628.01"/>
    </edge>
    <edge id=":86_0" function="internal">
        <lane id=":86_0_0" index="0" disallow="pedestrian tram rail_urban rail rail_electric rail_fast ship" speed="11.15" length="28.55" width="3.50" shape="244.88,570.95 241.98,569.37 239.95,568.53 237.85,567.91 235.68,567.55 234.59,567.50 233.49,567.53 232.40,567.66 231.32,567.88 230.27,568.20 229.25,568.61 228.27,569.11 226.44,570.31 224.78,571.75 223.29,573.37 221.96,575.11 220.76,576.95"/>
    </edge>
    <edge id=":86_1" function="internal">
        <lane id=":86_1_0" index="0" disallow="pedestrian tram rail_urban rail rail_electric rail_fast ship" speed="12.18" length="34.12" width="3.50" shape="244.88,570.95 241.63,568.71 239.64,567.01 237.83,565.12 236.26,563.01 235.60,561.87 235.03,560.69 234.56,559.47 234.20,558.21 233.96,556.92 233.82,555.61 233.80,554.30 234.05,551.69 234.66,549.14 235.55,546.67 236.67,544.30 237.96,542.01"/>
    </edge>
    <edge id=":86_2" function="internal">
        <lane id=":86_2_0" index="0" disallow="pedestrian tram rail_urban rail rail_electric rail_fast ship" speed="11.18" length="28.56" width="3.50" shape="240.96,543.82 239.82,545.82 238.86,547.87 238.10,549.96 237.59,552.09 237.38,554.26 237.40,555.29 237.51,556.34 237.71,557.37 238.00,558.38 238.37,559.36 238.83,560.32 239.36,561.21 240.66,562.98 242.19,564.58 243.89,566.02 246.71,567.97"/>
    </edge>
    <edge id=":86_3" function="internal">
        <lane id=":86_3_0" index="0" disallow="pedestrian tram rail_urban rail rail_electric rail_fast ship" speed="36.11" length="38.80" width="3.50" shape="240.96,543.82 230.85,560.39 220.76,576.95"/>
    </edge>
    <edge id=":86_4" function="internal">
        <lane id=":86_4_0" index="0" disallow="pedestrian tram rail_urban rail rail_electric rail_fast ship" speed="36.11" length="38.79" width="3.50" shape="217.77,575.13 227.86,558.57 237.96,542.01"/>
    </edge>
    <edge id=":86_5" function="internal">
        <lane id=":86_5_0" index="0" disallow="pedestrian tram rail_urban rail rail_electric rail_fast ship" speed="12.15" length="34.15" width="3.50" shape="217.77,575.13 219.16,573.01 220.71,570.97 222.47,569.07 224.46,567.35 226.66,565.90 227.89,565.28 229.16,564.78 230.46,564.38 231.79,564.11 233.14,563.95 234.50,563.91 235.87,563.98 238.46,564.41 240.97,565.15 243.36,566.15 246.71,567.97"/>
    </edge>
    <edge id=":87_0" function="internal">
        <lane id=":87_0_0" index="0" disallow="pedestrian tram rail_urban rail rail_electric rail_fast ship" speed="11.46" length="29.82" width="3.50" shape="348.29,655.87 344.94,656.02 342.76,656.32 340.61,656.81 338.52,657.53 336.55,658.51 335.62,659.11 334.75,659.78 333.93,660.52 333.18,661.33 332.50,662.20 331.89,663.12 330.91,665.09 330.20,667.18 329.74,669.34 329.49,671.53 329.41,673.74"/>
    </edge>
    <edge id=":87_1" function="internal">
        <lane id=":87_1_0" index="0" disallow="pedestrian tram rail_urban rail rail_electric rail_fast ship" speed="36.11" length="40.14" width="3.50" shape="348.29,655.87 328.21,655.94 308.15,656.01"/>
    </edge>
    <edge id=":87_2" function="internal">
        <lane id=":87_2_0" index="0" disallow="pedestrian tram rail_urban rail rail_electric rail_fast ship" speed="12.08" length="34.03" width="3.50" shape="348.29,655.87 344.33,655.67 341.75,655.27 339.22,654.61 336.79,653.64 335.63,653.03 334.53,652.32 333.50,651.53 332.53,650.64 331.65,649.68 330.86,648.64 330.16,647.54 329.02,645.18 328.23,642.69 327.73,640.12 327.46,637.52 327.40,634.91"/>
    </edge>
    <edge id=":87_3" function="internal">
        <lane id=":87_3_0" index="0" disallow="pedestrian tram rail_urban rail rail_electric rail_fast ship" speed="11.06" length="28.39" width="3.50" shape="330.90,634.93 330.95,637.21 331.18,639.45 331.60,641.62 332.26,643.69 333.20,645.64 333.75,646.50 334.39,647.33 335.09,648.10 335.86,648.81 336.69,649.44 337.58,650.01 338.49,650.50 340.52,651.31 342.65,651.86 344.84,652.20 348.25,652.37"/>
    </edge>
    <edge id=":87_4" function="internal">
        <lane id=":87_4_0" index="0" disallow="pedestrian tram rail_urban rail rail_electric rail_fast ship" speed="36.11" length="38.84" width="3.50" shape="330.90,634.93 330.76,641.12 329.60,664.60 329.41,673.74"/>
    </edge>
    <edge id=":87_5" function="internal">
        <lane id=":87_5_0" index="0" disallow="pedestrian tram rail_urban rail rail_electric rail_fast ship" speed="12.42" length="35.38" width="3.50" shape="330.90,634.93 330.78,637.49 330.45,640.05 329.86,642.59 328.96,645.08 327.72,647.41 326.93,648.55 326.07,649.60 325.12,650.57 324.10,651.45 323.01,652.25 321.84,652.97 319.48,654.10 317.00,654.93 314.48,655.49 311.93,655.83 308.15,656.01"/>
    </edge>
    <edge id=":87_6" function="internal">
        <lane id=":87_6_0" index="0" disallow="pedestrian tram rail_urban rail rail_electric rail_fast ship" speed="11.44" length="29.84" width="3.50" shape="308.14,652.51 311.46,652.36 313.65,652.07 315.81,651.60 317.91,650.90 319.90,649.96 320.85,649.38 321.74,648.73 322.58,648.01 323.36,647.23 324.07,646.38 324.70,645.48 325.75,643.53 326.51,641.46 327.01,639.31 327.30,637.11 327.40,634.91"/>
    </edge>
    <edge id=":87_7" function="internal">
        <lane id=":87_7_0" index="0" disallow="pedestrian tram rail_urban rail rail_electric rail_fast ship" speed="36.11" length="40.11" width="3.50" shape="308.14,652.51 328.20,652.44 348.25,652.37"/>
    </edge>
    <edge id=":87_8" function="internal">
        <lane id=":87_8_0" index="0" disallow="pedestrian tram rail_urban rail rail_electric rail_fast ship" speed="12.23" length="34.49" width="3.50" shape="308.14,652.51 312.12,652.71 314.74,653.11 317.31,653.78 319.77,654.76 320.94,655.38 322.06,656.10 323.12,656.90 324.10,657.80 324.99,658.78 325.80,659.83 326.51,660.94 327.67,663.33 328.50,665.85 329.03,668.45 329.32,671.08 329.41,673.74"/>
    </edge>
    <edge id=":87_9" function="internal">
        <lane id=":87_9_0" index="0" disallow="pedestrian tram rail_urban rail rail_electric rail_fast ship" speed="11.23" length="28.90" width="3.50" shape="325.91,673.74 325.83,671.43 325.59,669.15 325.13,666.95 324.45,664.84 323.48,662.85 322.92,661.98 322.27,661.13 321.55,660.35 320.76,659.63 319.92,658.98 319.01,658.41 318.08,657.91 316.01,657.08 313.85,656.52 311.62,656.18 308.15,656.01"/>
    </edge>
    <edge id=":87_10" function="internal">
        <lane id=":87_10_0" index="0" disallow="pedestrian tram rail_urban rail rail_electric rail_fast ship" speed="36.11" length="38.86" width="3.50" shape="325.91,673.74 326.10,664.53 327.26,641.04 327.40,634.91"/>
    </edge>
    <edge id=":87_11" function="internal">
        <lane id=":87_11_0" index="0" disallow="pedestrian tram rail_urban rail rail_electric rail_fast ship" speed="12.45" length="35.36" width="3.50" shape="325.91,673.74 326.00,671.19 326.29,668.64 326.83,666.10 327.67,663.60 328.85,661.24 329.60,660.08 330.43,659.01 331.34,658.01 332.35,657.09 333.42,656.27 334.57,655.52 336.92,654.34 339.40,653.48 341.92,652.90 344.47,652.55 348.25,652.37"/>
    </edge>
    <edge id=":88_0" function="internal">
        <lane id=":88_0_0" index="0" disallow="pedestrian tram rail_urban rail rail_electric rail_fast ship" speed="36.11" length="33.06" width="3.50" shape="137.81,612.12 124.46,602.36 111.13,592.60"/>
    </edge>
    <edge id=":88_1" function="internal">
        <lane id=":88_1_0" index="0" disallow="pedestrian tram rail_urban rail rail_electric rail_fast ship" speed="12.28" length="30.72" width="3.50" shape="137.81,612.12 135.93,610.45 135.05,609.43 134.31,608.36 133.68,607.21 133.17,606.00 132.78,604.76 132.51,603.50 132.35,602.21 132.32,599.74 132.59,597.31 133.09,594.93 134.13,591.54 135.45,588.27 137.49,584.12"/>
    </edge>
    <edge id=":88_2" function="internal">
        <lane id=":88_2_0" index="0" disallow="pedestrian tram rail_urban rail rail_electric rail_fast ship" speed="11.27" length="25.74" width="3.50" shape="140.58,585.77 138.76,589.45 137.58,592.31 136.62,595.25 136.15,597.25 135.87,599.29 135.82,601.35 135.91,602.38 136.08,603.40 136.34,604.39 136.70,605.36 137.17,606.28 137.73,607.14 138.38,607.94 139.90,609.32"/>
    </edge>
    <edge id=":88_3" function="internal">
        <lane id=":88_3_0" index="0" disallow="pedestrian tram rail_urban rail rail_electric rail_fast ship" speed="11.87" length="35.75" width="3.50" shape="140.58,585.77 139.26,588.04 137.76,590.25 136.04,592.34 134.07,594.22 132.94,595.09 131.75,595.86 130.49,596.52 129.16,597.06 127.77,597.46 126.35,597.72 124.91,597.82 123.49,597.79 122.08,597.62 120.71,597.35 119.35,596.96 116.83,595.98 114.43,594.74 111.13,592.60"/>
    </edge>
    <edge id=":88_4" function="internal">
        <lane id=":88_4_0" index="0" disallow="pedestrian tram rail_urban rail rail_electric rail_fast ship" speed="10.85" length="29.65" width="3.50" shape="113.17,589.75 116.03,591.62 118.06,592.67 120.19,593.49 121.29,593.80 122.41,594.03 123.54,594.16 124.68,594.19 125.82,594.10 126.95,593.90 128.04,593.58 129.10,593.15 130.11,592.62 131.07,592.00 131.97,591.31 133.62,589.73 135.08,587.97 136.36,586.08 137.49,584.12"/>
    </edge>
    <edge id=":88_5" function="internal">
        <lane id=":88_5_0" index="0" disallow="pedestrian tram rail_urban rail rail_electric rail_fast ship" speed="36.11" length="33.13" width="3.50" shape="113.17,589.75 126.53,599.54 139.90,609.32"/>
    </edge>
    <edge id=":89_0" function="internal">
        <lane id=":89_0_0" index="0" disallow="pedestrian tram rail_urban rail rail_electric rail_fast ship" speed="11.30" length="28.74" width="3.50" shape="284.05,506.98 281.10,505.47 279.03,504.68 276.89,504.10 274.70,503.79 273.60,503.76 272.49,503.81 271.39,503.95 270.31,504.18 269.25,504.51 268.23,504.92 267.24,505.42 265.38,506.63 263.71,508.07 262.20,509.69 260.84,511.45 259.64,513.27"/>
    </edge>
    <edge id=":89_1" function="internal">
        <lane id=":89_1_0" index="0" disallow="pedestrian tram rail_urban rail rail_electric rail_fast ship" speed="36.11" length="38.24" width="3.50" shape="284.05,506.98 274.31,501.10 261.10,492.97 253.91,488.89 251.18,487.46"/>
    </edge>
    <edge id=":89_2" function="internal">
        <lane id=":89_2_0" index="0" disallow="pedestrian tram rail_urban rail rail_electric rail_fast ship" speed="36.11" length="38.55" width="3.50" shape="252.64,484.28 255.55,485.80 262.82,489.92 276.08,498.08 285.79,503.94"/>
    </edge>
    <edge id=":89_3" function="internal">
        <lane id=":89_3_0" index="0" disallow="pedestrian tram rail_urban rail rail_electric rail_fast ship" speed="11.78" length="34.74" width="3.50" shape="252.64,484.28 255.01,485.60 257.17,487.07 259.19,488.79 260.97,490.77 261.77,491.92 262.47,493.11 263.05,494.38 263.50,495.69 263.83,497.04 264.03,498.41 264.10,499.78 264.06,501.14 263.91,502.51 263.35,505.09 262.52,507.57 261.47,509.95 259.64,513.27"/>
    </edge>
    <edge id=":89_4" function="internal">
        <lane id=":89_4_0" index="0" disallow="pedestrian tram rail_urban rail rail_electric rail_fast ship" speed="10.75" length="28.72" width="3.50" shape="256.65,511.45 258.25,508.56 259.14,506.54 259.86,504.44 260.33,502.28 260.46,501.19 260.50,500.08 260.45,498.97 260.30,497.88 260.05,496.80 259.69,495.75 259.24,494.75 258.69,493.78 258.06,492.87 256.59,491.22 254.91,489.78 253.09,488.53 251.18,487.46"/>
    </edge>
    <edge id=":89_5" function="internal">
        <lane id=":89_5_0" index="0" disallow="pedestrian tram rail_urban rail rail_electric rail_fast ship" speed="12.29" length="34.23" width="3.50" shape="256.65,511.45 258.05,509.34 259.62,507.30 261.40,505.39 263.40,503.67 265.61,502.23 266.85,501.61 268.11,501.10 269.41,500.70 270.74,500.41 272.09,500.24 273.45,500.18 274.82,500.22 277.42,500.59 279.96,501.28 282.39,502.21 285.79,503.94"/>
    </edge>
    <edge id=":90_0" function="internal">
        <lane id=":90_0_0" index="0" disallow="pedestrian tram rail_urban rail rail_electric rail_fast ship" speed="30.38" length="34.98" width="3.50" shape="325.46,561.02 324.81,557.99 323.27,551.94 321.72,547.00 319.88,542.18 318.18,538.45 316.23,534.86 314.01,531.44 312.15,529.04"/>
    </edge>
    <edge id=":90_1" function="internal">
        <lane id=":90_1_0" index="0" disallow="pedestrian tram rail_urban rail rail_electric rail_fast ship" speed="13.93" length="32.19" width="3.50" shape="325.46,561.02 325.09,558.67 324.94,556.28 325.02,553.86 325.38,551.46 326.00,549.12 326.88,546.85 328.00,544.71 329.32,542.71 330.82,540.84 333.30,538.33 336.00,536.09 338.85,534.12"/>
    </edge>
    <edge id=":90_2" function="internal">