<!-- generated on Tue Feb  9 22:07:14 2021 by Eclipse SUMO netconvert Version 1.8.0
<configuration xmlns:xsi="http://www.w3.org/2001/XMLSchema-instance" xsi:noNamespaceSchemaLocation="http://sumo.dlr.de/xsd/netconvertConfiguration.xsd">

    <input>
        <node-files value="./converted_scenarios/scenario-factory/DEU_Hennigsdorf-2_3_I-1-1/DEU_Hennigsdorf-2_3_I-1-1.nod.xml"/>
        <edge-files value="./converted_scenarios/scenario-factory/DEU_Hennigsdorf-2_3_I-1-1/DEU_Hennigsdorf-2_3_I-1-1.edg.xml"/>
        <connection-files value="./converted_scenarios/scenario-factory/DEU_Hennigsdorf-2_3_I-1-1/DEU_Hennigsdorf-2_3_I-1-1.con.xml"/>
        <tllogic-files value="./converted_scenarios/scenario-factory/DEU_Hennigsdorf-2_3_I-1-1/DEU_Hennigsdorf-2_3_I-1-1.tll.xml"/>
        <type-files value="/home/zen/commonroad-interactive-benchmarks/install/commonroad-map-tool/crmapconverter/sumo_map/templates/DEU.typ.xml"/>
    </input>

    <output>
        <output-file value="./converted_scenarios/scenario-factory/DEU_Hennigsdorf-2_3_I-1-1/DEU_Hennigsdorf-2_3_I-1-1.net.xml"/>
    </output>

    <processing>
        <geometry.remove.keep-edges.explicit value="true"/>
        <geometry.avoid-overlap value="true"/>
        <offset.disable-normalization value="true"/>
    </processing>

    <junctions>
        <no-turnarounds value="true"/>
        <junctions.internal-link-detail value="20"/>
    </junctions>

    <report>
        <aggregate-warnings value="5"/>
    </report>

    <random_number>
        <seed value="1234"/>
    </random_number>

</configuration>
--><net xmlns:xsi="http://www.w3.org/2001/XMLSchema-instance" version="1.6" junctionCornerDetail="5" junctionLinkDetail="20" limitTurnSpeed="5.50" xsi:noNamespaceSchemaLocation="http://sumo.dlr.de/xsd/net_file.xsd">

    <location netOffset="0.00,0.00" convBoundary="749.94,464.03,1014.55,653.03" origBoundary="749.91,464.03,1014.66,653.12" projParameter="!"/>

    <type id="highway.bridleway" priority="1" speed="2.78" allow="pedestrian" oneway="1" width="2.00"/>
    <type id="highway.bus_guideway" priority="1" speed="27.78" allow="bus" oneway="1"/>
    <type id="highway.cycleway" priority="1" speed="8.33" allow="bicycle" oneway="0" width="1.00"/>
    <type id="highway.footway" priority="1" speed="2.78" allow="pedestrian" oneway="1" width="2.00"/>
    <type id="highway.ford" priority="1" speed="2.78" allow="army" oneway="0"/>
    <type id="highway.living_street" priority="2" speed="2.78" disallow="tram rail_urban rail rail_electric rail_fast ship" oneway="0"/>
    <type id="highway.motorway" priority="14" speed="39.44" allow="private emergency authority army vip passenger hov taxi bus coach delivery truck trailer motorcycle evehicle custom1 custom2" oneway="1"/>
    <type id="highway.motorway_link" priority="9" speed="22.22" allow="private emergency authority army vip passenger hov taxi bus coach delivery truck trailer motorcycle evehicle custom1 custom2" oneway="1"/>
    <type id="highway.path" priority="1" speed="2.78" allow="pedestrian bicycle" oneway="0" width="2.00"/>
    <type id="highway.pedestrian" priority="1" speed="2.78" allow="pedestrian" oneway="1" width="2.00"/>
    <type id="highway.primary" priority="12" speed="27.78" disallow="pedestrian tram rail_urban rail rail_electric rail_fast ship" oneway="0"/>
    <type id="highway.primary_link" priority="7" speed="22.22" disallow="pedestrian tram rail_urban rail rail_electric rail_fast ship" oneway="0"/>
    <type id="highway.raceway" priority="15" speed="83.33" allow="vip" oneway="0"/>
    <type id="highway.residential" priority="3" speed="13.89" disallow="pedestrian tram rail_urban rail rail_electric rail_fast ship" oneway="0"/>
    <type id="highway.secondary" priority="11" speed="27.78" disallow="pedestrian tram rail_urban rail rail_electric rail_fast ship" oneway="0"/>
    <type id="highway.secondary_link" priority="6" speed="22.22" disallow="pedestrian tram rail_urban rail rail_electric rail_fast ship" oneway="0"/>
    <type id="highway.service" priority="1" speed="5.56" allow="pedestrian delivery bicycle" oneway="0"/>
    <type id="highway.stairs" priority="1" speed="1.39" allow="pedestrian" oneway="1" width="2.00"/>
    <type id="highway.step" priority="1" speed="1.39" allow="pedestrian" oneway="1" width="2.00"/>
    <type id="highway.steps" priority="1" speed="1.39" allow="pedestrian" oneway="1" width="2.00"/>
    <type id="highway.tertiary" priority="10" speed="22.22" disallow="pedestrian tram rail_urban rail rail_electric rail_fast ship" oneway="0"/>
    <type id="highway.tertiary_link" priority="5" speed="22.22" disallow="pedestrian tram rail_urban rail rail_electric rail_fast ship" oneway="0"/>
    <type id="highway.track" priority="1" speed="5.56" allow="pedestrian motorcycle moped bicycle" oneway="0"/>
    <type id="highway.trunk" priority="13" speed="27.78" disallow="pedestrian bicycle tram rail_urban rail rail_electric rail_fast ship" oneway="0"/>
    <type id="highway.trunk_link" priority="8" speed="22.22" disallow="pedestrian bicycle tram rail_urban rail rail_electric rail_fast ship" oneway="0"/>
    <type id="highway.unclassified" priority="4" speed="13.89" disallow="pedestrian tram rail_urban rail rail_electric rail_fast ship" oneway="0"/>
    <type id="highway.unsurfaced" priority="1" speed="8.33" disallow="tram rail_urban rail rail_electric rail_fast ship" oneway="0"/>
    <type id="railway.highspeed" priority="21" speed="69.44" allow="rail_fast" oneway="1"/>
    <type id="railway.light_rail" priority="19" speed="27.78" allow="rail_urban" oneway="1"/>
    <type id="railway.preserved" priority="16" speed="27.78" allow="rail" oneway="1"/>
    <type id="railway.rail" priority="20" speed="44.44" allow="rail" oneway="1"/>
    <type id="railway.subway" priority="18" speed="27.78" allow="rail_urban" oneway="1"/>
    <type id="railway.tram" priority="17" speed="13.89" allow="tram" oneway="1"/>

    <edge id=":21_0" function="internal">
        <lane id=":21_0_0" index="0" disallow="pedestrian tram rail_urban rail rail_electric rail_fast ship" speed="36.11" length="41.88" width="3.50" shape="944.15,562.08 939.50,561.82 930.20,561.45 920.90,561.28 911.59,561.32 902.29,561.58"/>
        <lane id=":21_0_1" index="1" disallow="pedestrian tram rail_urban rail rail_electric rail_fast ship" speed="36.11" length="42.23" width="3.50" shape="944.36,558.58 939.66,558.32 930.28,557.95 920.89,557.78 911.51,557.82 902.15,558.08"/>
    </edge>
    <edge id=":21_2" function="internal">
        <lane id=":21_2_0" index="0" disallow="pedestrian tram rail_urban rail rail_electric rail_fast ship" speed="12.79" length="37.90" width="3.50" shape="944.36,558.58 940.30,558.14 936.88,557.40 934.12,556.46 931.50,555.19 929.56,553.89 927.81,552.36 926.29,550.59 925.03,548.62 924.04,546.51 923.16,543.73 922.63,540.87 922.38,537.38 922.46,533.88"/>
    </edge>
    <edge id=":21_3" function="internal">
        <lane id=":21_3_0" index="0" disallow="pedestrian tram rail_urban rail rail_electric rail_fast ship" speed="11.32" length="29.42" width="3.50" shape="925.95,534.10 925.94,537.04 926.24,539.38 926.86,541.65 927.57,543.26 928.50,544.76 929.63,546.12 930.94,547.30 932.90,548.61 935.02,549.62 937.81,550.54 941.27,551.24 944.79,551.60"/>
    </edge>
    <edge id=":21_4" function="internal">
        <lane id=":21_4_0" index="0" disallow="pedestrian tram rail_urban rail rail_electric rail_fast ship" speed="13.33" length="37.90" width="3.50" shape="925.95,534.10 925.52,538.04 924.83,541.36 923.98,544.06 922.85,546.65 921.39,549.08 919.62,551.28 917.97,552.83 915.67,554.47 913.16,555.78 910.51,556.76 907.76,557.45 904.41,557.93 902.15,558.08"/>
    </edge>
    <edge id=":21_5" function="internal">
        <lane id=":21_5_0" index="0" disallow="pedestrian tram rail_urban rail rail_electric rail_fast ship" speed="11.91" length="30.04" width="3.50" shape="901.87,551.09 905.82,550.75 909.16,550.10 911.86,549.24 913.93,548.30 915.86,547.11 917.60,545.66 919.10,543.96 920.32,542.05 921.24,539.98 921.89,537.80 922.36,535.01 922.46,533.88"/>
    </edge>
    <edge id=":21_6" function="internal">
        <lane id=":21_6_0" index="0" disallow="pedestrian tram rail_urban rail rail_electric rail_fast ship" speed="36.11" length="42.94" width="3.50" shape="901.87,551.09 911.43,550.82 920.97,550.78 930.51,550.95 940.03,551.33 944.79,551.60"/>
        <lane id=":21_6_1" index="1" disallow="pedestrian tram rail_urban rail rail_electric rail_fast ship" speed="36.11" length="42.59" width="3.50" shape="902.01,554.59 911.47,554.32 920.93,554.28 930.39,554.45 939.85,554.83 944.58,555.09"/>
    </edge>
    <edge id=":22_0" function="internal">
        <lane id=":22_0_0" index="0" disallow="pedestrian tram rail_urban rail rail_electric rail_fast ship" speed="12.09" length="31.35" width="3.50" shape="868.04,562.94 865.95,563.09 863.88,563.39 861.85,563.87 859.87,564.54 857.98,565.44 856.22,566.56 854.62,567.91 853.22,569.46 852.05,571.19 851.08,573.04 850.32,574.99 849.74,577.00 849.33,579.05 849.05,581.12 848.89,583.20"/>
    </edge>
    <edge id=":22_1" function="internal">
        <lane id=":22_1_0" index="0" disallow="pedestrian tram rail_urban rail rail_electric rail_fast ship" speed="13.03" length="36.60" width="3.50" shape="867.90,559.44 865.46,559.62 863.07,559.98 860.69,560.54 858.36,561.33 856.12,562.40 854.01,563.75 852.10,565.37 850.43,567.23 849.04,569.28 847.91,571.46 847.02,573.72 846.36,576.04 845.88,578.38 845.57,580.73 845.39,583.03"/>
    </edge>
    <edge id=":22_2" function="internal">
        <lane id=":22_2_0" index="0" disallow="pedestrian tram rail_urban rail rail_electric rail_fast ship" speed="36.11" length="47.96" width="3.50" shape="867.90,559.44 857.01,559.80 839.58,560.08 819.95,560.03"/>
    </edge>
    <edge id=":22_3" function="internal">
        <lane id=":22_3_0" index="0" disallow="pedestrian tram rail_urban rail rail_electric rail_fast ship" speed="36.11" length="47.59" width="3.50" shape="820.05,553.03 839.50,553.08 856.81,552.80 867.63,552.45"/>
        <lane id=":22_3_1" index="1" disallow="pedestrian tram rail_urban rail rail_electric rail_fast ship" speed="36.11" length="47.77" width="3.50" shape="820.00,556.53 839.55,556.58 856.91,556.30 867.76,555.94"/>
    </edge>
    <edge id=":22_5" function="internal">
        <lane id=":22_5_0" index="0" disallow="pedestrian tram rail_urban rail rail_electric rail_fast ship" speed="13.37" length="42.46" width="3.50" shape="820.00,556.53 823.04,556.66 826.06,556.99 829.03,557.57 831.94,558.44 834.72,559.65 837.30,561.24 839.59,563.22 841.51,565.57 843.01,568.20 844.11,571.03 844.85,573.97 845.28,576.97 845.44,580.00 845.39,583.03"/>
    </edge>
    <edge id=":22_6" function="internal">
        <lane id=":22_6_0" index="0" disallow="pedestrian tram rail_urban rail rail_electric rail_fast ship" speed="11.47" length="30.96" width="3.50" shape="838.40,582.72 838.44,580.47 838.32,578.21 838.02,576.01 837.49,573.89 836.72,571.88 835.69,570.03 834.37,568.39 832.77,566.99 830.93,565.85 828.92,564.96 826.78,564.32 824.55,563.88 822.27,563.63 819.90,563.52"/>
    </edge>
    <edge id=":22_7" function="internal">
        <lane id=":22_7_0" index="0" disallow="pedestrian tram rail_urban rail rail_electric rail_fast ship" speed="12.47" length="36.77" width="3.50" shape="841.90,582.88 841.94,580.16 841.80,577.47 841.42,574.84 840.79,572.30 839.85,569.89 838.58,567.68 836.98,565.72 835.06,564.07 832.88,562.73 830.50,561.70 827.97,560.95 825.36,560.44 822.68,560.14 819.95,560.03"/>
    </edge>
    <edge id=":22_8" function="internal">
        <lane id=":22_8_0" index="0" disallow="pedestrian tram rail_urban rail rail_electric rail_fast ship" speed="13.92" length="41.93" width="3.50" shape="841.90,582.88 842.11,580.15 842.47,577.44 843.03,574.74 843.82,572.08 844.86,569.48 846.18,566.99 847.81,564.66 849.75,562.56 851.95,560.74 854.37,559.23 856.93,558.05 859.59,557.16 862.30,556.54 865.03,556.14 867.76,555.94"/>
    </edge>

    <edge id="2019" from="17" to="21" priority="3" type="highway.residential" spreadType="center" length="70.01" shape="930.42,464.24 925.33,549.19">
        <lane id="2019_0" index="0" disallow="pedestrian tram rail_urban rail rail_electric rail_fast ship" speed="36.11" length="70.01" width="3.50" customShape="1" shape="930.42,464.24 925.95,534.11"/>
    </edge>
    <edge id="2020" from="21" to="16" priority="3" type="highway.residential" spreadType="center" length="69.99" shape="921.84,548.99 926.93,464.03">
        <lane id="2020_0" index="0" disallow="pedestrian tram rail_urban rail rail_electric rail_fast ship" speed="36.11" length="69.99" width="3.50" customShape="1" shape="922.46,533.88 926.93,464.03"/>
    </edge>
    <edge id="2380" from="22" to="9" priority="3" type="highway.residential" spreadType="center" length="70.01" shape="843.90,569.52 749.94,560.35">
        <lane id="2380_0" index="0" disallow="pedestrian tram rail_urban rail rail_electric rail_fast ship" speed="36.11" length="70.03" width="3.50" customShape="1" shape="819.90,563.52 780.62,562.91 749.89,562.10"/>
        <lane id="2380_1" index="1" disallow="pedestrian tram rail_urban rail rail_electric rail_fast ship" speed="36.11" length="70.01" width="3.50" customShape="1" shape="819.95,560.03 780.71,559.42 749.96,558.60"/>
    </edge>
    <edge id="2383" from="20" to="22" priority="3" type="highway.residential" spreadType="center" length="70.01" shape="750.04,553.35 844.58,562.56">
        <lane id="2383_0" index="0" disallow="pedestrian tram rail_urban rail rail_electric rail_fast ship" speed="36.11" length="70.01" width="3.50" customShape="1" shape="750.07,551.60 780.84,552.42 820.06,553.03"/>
        <lane id="2383_1" index="1" disallow="pedestrian tram rail_urban rail rail_electric rail_fast ship" speed="36.11" length="70.02" width="3.50" customShape="1" shape="750.00,555.10 780.77,555.92 820.00,556.53"/>
    </edge>
    <edge id="2385" from="21" to="22" priority="3" type="highway.residential" spreadType="center" length="34.28" shape="924.31,552.48 844.69,569.48">
        <lane id="2385_0" index="0" disallow="pedestrian tram rail_urban rail rail_electric rail_fast ship" speed="36.11" length="34.28" width="3.50" customShape="1" shape="902.29,561.58 885.16,562.26 868.04,562.94"/>
        <lane id="2385_1" index="1" disallow="pedestrian tram rail_urban rail rail_electric rail_fast ship" speed="36.11" length="34.31" width="3.50" customShape="1" shape="902.15,558.08 885.02,558.76 867.87,559.44"/>
    </edge>
    <edge id="2388" from="22" to="21" priority="3" type="highway.residential" spreadType="center" length="34.27" shape="843.23,562.64 922.85,545.63">
        <lane id="2388_0" index="0" disallow="pedestrian tram rail_urban rail rail_electric rail_fast ship" speed="36.11" length="34.27" width="3.50" customShape="1" shape="867.63,552.45 884.75,551.77 901.87,551.09"/>
        <lane id="2388_1" index="1" disallow="pedestrian tram rail_urban rail rail_electric rail_fast ship" speed="36.11" length="34.29" width="3.50" customShape="1" shape="867.75,555.94 884.89,555.26 902.01,554.59"/>
    </edge>
    <edge id="2390" from="19" to="21" priority="3" type="highway.residential" spreadType="center" length="70.00" shape="1014.12,564.59 922.99,552.50">
        <lane id="2390_0" index="0" disallow="pedestrian tram rail_urban rail rail_electric rail_fast ship" speed="36.11" length="70.00" width="3.50" customShape="1" shape="1014.01,566.34 998.66,565.40 944.14,562.08"/>
        <lane id="2390_1" index="1" disallow="pedestrian tram rail_urban rail rail_electric rail_fast ship" speed="36.11" length="70.00" width="3.50" customShape="1" shape="1014.23,562.85 998.88,561.91 944.36,558.58"/>
    </edge>
    <edge id="2393" from="21" to="15" priority="3" type="highway.residential" spreadType="center" length="70.00" shape="923.91,545.57 1014.55,557.60">
        <lane id="2393_0" index="0" disallow="pedestrian tram rail_urban rail rail_electric rail_fast ship" speed="36.11" length="70.00" width="3.50" customShape="1" shape="944.79,551.60 999.30,554.92 1014.66,555.86"/>
        <lane id="2393_1" index="1" disallow="pedestrian tram rail_urban rail rail_electric rail_fast ship" speed="36.11" length="70.00" width="3.50" customShape="1" shape="944.58,555.09 999.09,558.42 1014.45,559.35"/>
    </edge>
    <edge id="2718" from="18" to="22" priority="3" type="highway.residential" spreadType="center" length="70.02" shape="836.72,652.71 840.62,565.73">
        <lane id="2718_0" index="0" disallow="pedestrian tram rail_urban rail rail_electric rail_fast ship" speed="36.11" length="70.02" width="3.50" customShape="1" shape="834.97,652.63 838.40,582.69"/>
        <lane id="2718_1" index="1" disallow="pedestrian tram rail_urban rail rail_electric rail_fast ship" speed="36.11" length="70.02" width="3.50" customShape="1" shape="838.47,652.80 841.90,582.86"/>
    </edge>
    <edge id="2721" from="22" to="12" priority="3" type="highway.residential" spreadType="center" length="70.00" shape="847.61,566.04 843.71,653.03">
        <lane id="2721_0" index="0" disallow="pedestrian tram rail_urban rail rail_electric rail_fast ship" speed="36.11" length="70.00" width="3.50" customShape="1" shape="848.89,583.20 845.46,653.12"/>
        <lane id="2721_1" index="1" disallow="pedestrian tram rail_urban rail rail_electric rail_fast ship" speed="36.11" length="70.00" width="3.50" customShape="1" shape="845.39,583.02 841.97,652.94"/>
    </edge>

    <junction id="12" type="dead_end" x="843.71" y="653.03" incLanes="2721_0 2721_1" intLanes="" shape="847.21,653.20 840.22,652.86" rightOfWay="edgePriority"/>
    <junction id="15" type="dead_end" x="1014.55" y="557.60" incLanes="2393_0 2393_1" intLanes="" shape="1014.77,554.11 1014.34,561.10" rightOfWay="edgePriority"/>
    <junction id="16" type="dead_end" x="926.93" y="464.03" incLanes="2020_0" intLanes="" shape="925.18,463.92 928.67,464.14" rightOfWay="edgePriority"/>
    <junction id="17" type="dead_end" x="930.42" y="464.24" incLanes="" intLanes="" shape="928.68,464.13 932.17,464.35" rightOfWay="edgePriority"/>
    <junction id="18" type="dead_end" x="836.72" y="652.71" incLanes="" intLanes="" shape="840.22,652.88 833.22,652.54" rightOfWay="edgePriority"/>
    <junction id="19" type="dead_end" x="1014.12" y="564.59" incLanes="" intLanes="" shape="1014.33,561.10 1013.91,568.09" rightOfWay="edgePriority"/>
    <junction id="20" type="dead_end" x="750.04" y="553.35" incLanes="" intLanes="" shape="749.95,556.85 750.14,549.85" rightOfWay="edgePriority"/>
    <junction id="21" type="priority" x="923.58" y="549.05" incLanes="2390_0 2390_1 2019_0 2388_0 2388_1" intLanes=":21_0_0 :21_0_1 :21_2_0 :21_3_0 :21_4_0 :21_5_0 :21_6_0 :21_6_1" shape="944.04,563.82 944.90,549.85 939.38,549.11 934.93,547.62 931.53,545.39 929.19,542.41 927.92,538.69 927.70,534.22 920.71,533.77 919.92,538.33 918.19,542.11 915.51,545.09 911.89,547.29 907.32,548.71 901.80,549.34 902.36,563.33 911.23,562.99 917.80,562.81 923.21,562.79 928.62,562.95 935.18,563.29">
        <request index="0" response="00000000" foes="00010000" cont="0"/>
        <request index="1" response="00000000" foes="00010000" cont="0"/>
        <request index="2" response="11100000" foes="11110000" cont="0"/>
        <request index="3" response="11000000" foes="11000000" cont="0"/>
        <request index="4" response="11000111" foes="11000111" cont="0"/>
        <request index="5" response="00000000" foes="00000100" cont="0"/>
        <request index="6" response="00000000" foes="00011100" cont="0"/>
        <request index="7" response="00000000" foes="00011100" cont="0"/>
    </junction>
    <junction id="22" type="priority" x="844.11" y="566.03" incLanes="2385_0 2385_1 2383_0 2383_1 2718_0 2718_1" intLanes=":22_0_0 :22_1_0 :22_2_0 :22_3_0 :22_3_1 :22_5_0 :22_6_0 :22_7_0 :22_8_0" shape="868.11,564.69 867.56,550.70 820.09,551.28 819.87,565.27 825.23,565.83 829.57,567.32 832.88,569.74 835.16,573.10 836.42,577.38 836.65,582.60 850.64,583.29 851.37,577.79 852.97,573.25 855.44,569.67 858.79,567.05 863.02,565.39">
        <request index="0" response="000000000" foes="000100000" cont="0"/>
        <request index="1" response="000000000" foes="000100000" cont="0"/>
        <request index="2" response="000000000" foes="111100000" cont="0"/>
        <request index="3" response="000000000" foes="100000000" cont="0"/>
        <request index="4" response="000000000" foes="100000000" cont="0"/>
        <request index="5" response="000000111" foes="100000111" cont="0"/>
        <request index="6" response="000000100" foes="000000100" cont="0"/>
        <request index="7" response="000000100" foes="000000100" cont="0"/>
        <request index="8" response="000111100" foes="000111100" cont="0"/>
    </junction>
    <junction id="9" type="dead_end" x="749.94" y="560.35" incLanes="2380_0 2380_1" intLanes="" shape="749.84,563.84 750.03,556.85" rightOfWay="edgePriority"/>

    <connection from="2019" to="2393" fromLane="0" toLane="0" contPos="-4.00" shape="925.95,534.10 925.94,537.04 926.24,539.38 926.86,541.65 927.57,543.26 928.50,544.76 929.63,546.12 930.94,547.30 932.90,548.61 935.02,549.62 937.81,550.54 941.27,551.24 944.79,551.60" via=":21_3_0" dir="r" state="m"/>
    <connection from="2019" to="2385" fromLane="0" toLane="1" contPos="-4.00" shape="925.95,534.10 925.52,538.04 924.83,541.36 923.98,544.06 922.85,546.65 921.39,549.08 919.62,551.28 917.97,552.83 915.67,554.47 913.16,555.78 910.51,556.76 907.76,557.45 904.41,557.93 902.15,558.08" via=":21_4_0" dir="l" state="m"/>
    <connection from="2383" to="2388" fromLane="0" toLane="0" contPos="-4.00" shape="820.05,553.03 839.50,553.08 856.81,552.80 867.63,552.45" via=":22_3_0" dir="s" state="M"/>
    <connection from="2383" to="2388" fromLane="1" toLane="1" contPos="-4.00" shape="820.00,556.53 839.55,556.58 856.91,556.30 867.75,555.94" via=":22_3_1" dir="s" state="M"/>
    <connection from="2383" to="2721" fromLane="1" toLane="1" contPos="-4.00" shape="820.00,556.53 823.04,556.66 826.06,556.99 829.03,557.57 831.94,558.44 834.72,559.65 837.30,561.24 839.59,563.22 841.51,565.57 843.01,568.20 844.11,571.03 844.85,573.97 845.28,576.97 845.44,580.00 845.39,583.02" via=":22_5_0" dir="l" state="m"/>
    <connection from="2385" to="2721" fromLane="0" toLane="0" contPos="-4.00" shape="868.04,562.94 865.95,563.09 863.88,563.39 861.85,563.87 859.87,564.54 857.98,565.44 856.22,566.56 854.62,567.91 853.22,569.46 852.05,571.19 851.08,573.04 850.32,574.99 849.74,577.00 849.33,579.05 849.05,581.12 848.89,583.20" via=":22_0_0" dir="r" state="M"/>
    <connection from="2385" to="2721" fromLane="1" toLane="1" contPos="-4.00" shape="867.87,559.44 865.46,559.62 863.07,559.98 860.69,560.54 858.36,561.33 856.12,562.40 854.01,563.75 852.10,565.37 850.43,567.23 849.04,569.28 847.91,571.46 847.02,573.72 846.36,576.04 845.88,578.38 845.57,580.73 845.39,583.02" via=":22_1_0" dir="r" state="M"/>
    <connection from="2385" to="2380" fromLane="1" toLane="1" contPos="-4.00" shape="867.87,559.44 857.01,559.80 839.58,560.08 819.95,560.03" via=":22_2_0" dir="s" state="M"/>
    <connection from="2388" to="2020" fromLane="0" toLane="0" contPos="-4.00" shape="901.87,551.09 905.82,550.75 909.16,550.10 911.86,549.24 913.93,548.30 915.86,547.11 917.60,545.66 919.10,543.96 920.32,542.05 921.24,539.98 921.89,537.80 922.36,535.01 922.46,533.88" via=":21_5_0" dir="r" state="M"/>
    <connection from="2388" to="2393" fromLane="0" toLane="0" contPos="-4.00" shape="901.87,551.09 911.43,550.82 920.97,550.78 930.51,550.95 940.03,551.33 944.79,551.60" via=":21_6_0" dir="s" state="M"/>
    <connection from="2388" to="2393" fromLane="1" toLane="1" contPos="-4.00" shape="902.01,554.59 911.47,554.32 920.93,554.28 930.39,554.45 939.85,554.83 944.58,555.09" via=":21_6_1" dir="s" state="M"/>
    <connection from="2390" to="2385" fromLane="0" toLane="0" contPos="-4.00" shape="944.14,562.08 939.50,561.82 930.20,561.45 920.90,561.28 911.59,561.32 902.29,561.58" via=":21_0_0" dir="s" state="M"/>
    <connection from="2390" to="2385" fromLane="1" toLane="1" contPos="-4.00" shape="944.36,558.58 939.66,558.32 930.28,557.95 920.89,557.78 911.51,557.82 902.15,558.08" via=":21_0_1" dir="s" state="M"/>
    <connection from="2390" to="2020" fromLane="1" toLane="0" contPos="-4.00" shape="944.36,558.58 940.30,558.14 936.88,557.40 934.12,556.46 931.50,555.19 929.56,553.89 927.81,552.36 926.29,550.59 925.03,548.62 924.04,546.51 923.16,543.73 922.63,540.87 922.38,537.38 922.46,533.88" via=":21_2_0" dir="l" state="m"/>
    <connection from="2718" to="2380" fromLane="0" toLane="0" contPos="-4.00" shape="838.40,582.72 838.44,580.47 838.32,578.21 838.02,576.01 837.49,573.89 836.72,571.88 835.69,570.03 834.37,568.39 832.77,566.99 830.93,565.85 828.92,564.96 826.78,564.32 824.55,563.88 822.27,563.63 819.90,563.52" via=":22_6_0" dir="r" state="m"/>
    <connection from="2718" to="2380" fromLane="1" toLane="1" contPos="-4.00" shape="841.90,582.88 841.94,580.16 841.80,577.47 841.42,574.84 840.79,572.30 839.85,569.89 838.58,567.68 836.98,565.72 835.06,564.07 832.88,562.73 830.50,561.70 827.97,560.95 825.36,560.44 822.68,560.14 819.95,560.03" via=":22_7_0" dir="r" state="m"/>
    <connection from="2718" to="2388" fromLane="1" toLane="1" contPos="-4.00" shape="841.90,582.88 842.11,580.15 842.47,577.44 843.03,574.74 843.82,572.08 844.86,569.48 846.18,566.99 847.81,564.66 849.75,562.56 851.95,560.74 854.37,559.23 856.93,558.05 859.59,557.16 862.30,556.54 865.03,556.14 867.75,555.94" via=":22_8_0" dir="l" state="m"/>

    <connection from=":21_0" to="2385" fromLane="0" toLane="0" dir="s" state="M"/>
    <connection from=":21_0" to="2385" fromLane="1" toLane="1" dir="s" state="M"/>
    <connection from=":21_2" to="2020" fromLane="0" toLane="0" dir="l" state="M"/>
    <connection from=":21_3" to="2393" fromLane="0" toLane="0" dir="r" state="M"/>
    <connection from=":21_4" to="2385" fromLane="0" toLane="1" dir="l" state="M"/>
    <connection from=":21_5" to="2020" fromLane="0" toLane="0" dir="r" state="M"/>
    <connection from=":21_6" to="2393" fromLane="0" toLane="0" dir="s" state="M"/>
    <connection from=":21_6" to="2393" fromLane="1" toLane="1" dir="s" state="M"/>
    <connection from=":22_0" to="2721" fromLane="0" toLane="0" dir="r" state="M"/>
    <connection from=":22_1" to="2721" fromLane="0" toLane="1" dir="r" state="M"/>
    <connection from=":22_2" to="2380" fromLane="0" toLane="1" dir="s" state="M"/>
    <connection from=":22_3" to="2388" fromLane="0" toLane="0" dir="s" state="M"/>
    <connection from=":22_3" to="2388" fromLane="1" toLane="1" dir="s" state="M"/>
    <connection from=":22_5" to="2721" fromLane="0" toLane="1" dir="l" state="M"/>
    <connection from=":22_6" to="2380" fromLane="0" toLane="0" dir="r" state="M"/>
    <connection from=":22_7" to="2380" fromLane="0" toLane="1" dir="r" state="M"/>
    <connection from=":22_8" to="2388" fromLane="0" toLane="1" dir="l" state="M"/>

</net>