<routes>
	<vehicle depart="0.1" departLane="0" departPos="26.758778394285525" departSpeed="1.0483697" id="31" type="passenger">
		<route edges=":142_3 13262 12545"/>
	</vehicle>
	<vehicle depart="0.1" departLane="0" departPos="62.99826883100133" departSpeed="0.66794164" id="330" type="passenger">
		<route edges="13259 13262"/>
	</vehicle>
	<vehicle depart="0.1" departLane="0" departPos="17.083876683334854" departSpeed="1.1769541" id="352" type="passenger">
		<route edges="12544 13261"/>
	</vehicle>
	<vehicle depart="0.1" departLane="0" departPos="2.5" departSpeed="13.585912" id="3105" type="passenger">
		<route edges=":145_4 12545 12580"/>
	</vehicle>
	<vehicle depart="0.1" departLane="0" departPos="13.406678487224031" departSpeed="1.3276903" id="324" type="truck">
		<route edges=":142_4 13024"/>
	</vehicle>
</routes>
