<!-- generated on Tue Feb  9 22:06:18 2021 by Eclipse SUMO netconvert Version 1.8.0
<configuration xmlns:xsi="http://www.w3.org/2001/XMLSchema-instance" xsi:noNamespaceSchemaLocation="http://sumo.dlr.de/xsd/netconvertConfiguration.xsd">

    <input>
        <node-files value="./converted_scenarios/scenario-factory/HRV_Pula-7_4_I-1-1/HRV_Pula-7_4_I-1-1.nod.xml"/>
        <edge-files value="./converted_scenarios/scenario-factory/HRV_Pula-7_4_I-1-1/HRV_Pula-7_4_I-1-1.edg.xml"/>
        <connection-files value="./converted_scenarios/scenario-factory/HRV_Pula-7_4_I-1-1/HRV_Pula-7_4_I-1-1.con.xml"/>
        <tllogic-files value="./converted_scenarios/scenario-factory/HRV_Pula-7_4_I-1-1/HRV_Pula-7_4_I-1-1.tll.xml"/>
        <type-files value="/home/zen/commonroad-interactive-benchmarks/install/commonroad-map-tool/crmapconverter/sumo_map/templates/DEU.typ.xml"/>
    </input>

    <output>
        <output-file value="./converted_scenarios/scenario-factory/HRV_Pula-7_4_I-1-1/HRV_Pula-7_4_I-1-1.net.xml"/>
    </output>

    <processing>
        <geometry.remove.keep-edges.explicit value="true"/>
        <geometry.avoid-overlap value="true"/>
        <offset.disable-normalization value="true"/>
    </processing>

    <junctions>
        <no-turnarounds value="true"/>
        <junctions.internal-link-detail value="20"/>
    </junctions>

    <report>
        <aggregate-warnings value="5"/>
    </report>

    <random_number>
        <seed value="1234"/>
    </random_number>

</configuration>
--><net xmlns:xsi="http://www.w3.org/2001/XMLSchema-instance" version="1.6" junctionCornerDetail="5" junctionLinkDetail="20" limitTurnSpeed="5.50" xsi:noNamespaceSchemaLocation="http://sumo.dlr.de/xsd/net_file.xsd">

    <location netOffset="0.00,0.00" convBoundary="-220.51,-609.99,183.43,-215.75" origBoundary="-220.51,-609.99,183.43,-215.75" projParameter="!"/>

    <type id="highway.bridleway" priority="1" speed="2.78" allow="pedestrian" oneway="1" width="2.00"/>
    <type id="highway.bus_guideway" priority="1" speed="27.78" allow="bus" oneway="1"/>
    <type id="highway.cycleway" priority="1" speed="8.33" allow="bicycle" oneway="0" width="1.00"/>
    <type id="highway.footway" priority="1" speed="2.78" allow="pedestrian" oneway="1" width="2.00"/>
    <type id="highway.ford" priority="1" speed="2.78" allow="army" oneway="0"/>
    <type id="highway.living_street" priority="2" speed="2.78" disallow="tram rail_urban rail rail_electric rail_fast ship" oneway="0"/>
    <type id="highway.motorway" priority="14" speed="39.44" allow="private emergency authority army vip passenger hov taxi bus coach delivery truck trailer motorcycle evehicle custom1 custom2" oneway="1"/>
    <type id="highway.motorway_link" priority="9" speed="22.22" allow="private emergency authority army vip passenger hov taxi bus coach delivery truck trailer motorcycle evehicle custom1 custom2" oneway="1"/>
    <type id="highway.path" priority="1" speed="2.78" allow="pedestrian bicycle" oneway="0" width="2.00"/>
    <type id="highway.pedestrian" priority="1" speed="2.78" allow="pedestrian" oneway="1" width="2.00"/>
    <type id="highway.primary" priority="12" speed="27.78" disallow="pedestrian tram rail_urban rail rail_electric rail_fast ship" oneway="0"/>
    <type id="highway.primary_link" priority="7" speed="22.22" disallow="pedestrian tram rail_urban rail rail_electric rail_fast ship" oneway="0"/>
    <type id="highway.raceway" priority="15" speed="83.33" allow="vip" oneway="0"/>
    <type id="highway.residential" priority="3" speed="13.89" disallow="pedestrian tram rail_urban rail rail_electric rail_fast ship" oneway="0"/>
    <type id="highway.secondary" priority="11" speed="27.78" disallow="pedestrian tram rail_urban rail rail_electric rail_fast ship" oneway="0"/>
    <type id="highway.secondary_link" priority="6" speed="22.22" disallow="pedestrian tram rail_urban rail rail_electric rail_fast ship" oneway="0"/>
    <type id="highway.service" priority="1" speed="5.56" allow="pedestrian delivery bicycle" oneway="0"/>
    <type id="highway.stairs" priority="1" speed="1.39" allow="pedestrian" oneway="1" width="2.00"/>
    <type id="highway.step" priority="1" speed="1.39" allow="pedestrian" oneway="1" width="2.00"/>
    <type id="highway.steps" priority="1" speed="1.39" allow="pedestrian" oneway="1" width="2.00"/>
    <type id="highway.tertiary" priority="10" speed="22.22" disallow="pedestrian tram rail_urban rail rail_electric rail_fast ship" oneway="0"/>
    <type id="highway.tertiary_link" priority="5" speed="22.22" disallow="pedestrian tram rail_urban rail rail_electric rail_fast ship" oneway="0"/>
    <type id="highway.track" priority="1" speed="5.56" allow="pedestrian motorcycle moped bicycle" oneway="0"/>
    <type id="highway.trunk" priority="13" speed="27.78" disallow="pedestrian bicycle tram rail_urban rail rail_electric rail_fast ship" oneway="0"/>
    <type id="highway.trunk_link" priority="8" speed="22.22" disallow="pedestrian bicycle tram rail_urban rail rail_electric rail_fast ship" oneway="0"/>
    <type id="highway.unclassified" priority="4" speed="13.89" disallow="pedestrian tram rail_urban rail rail_electric rail_fast ship" oneway="0"/>
    <type id="highway.unsurfaced" priority="1" speed="8.33" disallow="tram rail_urban rail rail_electric rail_fast ship" oneway="0"/>
    <type id="railway.highspeed" priority="21" speed="69.44" allow="rail_fast" oneway="1"/>
    <type id="railway.light_rail" priority="19" speed="27.78" allow="rail_urban" oneway="1"/>
    <type id="railway.preserved" priority="16" speed="27.78" allow="rail" oneway="1"/>
    <type id="railway.rail" priority="20" speed="44.44" allow="rail" oneway="1"/>
    <type id="railway.subway" priority="18" speed="27.78" allow="rail_urban" oneway="1"/>
    <type id="railway.tram" priority="17" speed="13.89" allow="tram" oneway="1"/>

    <edge id=":132_0" function="internal">
        <lane id=":132_0_0" index="0" disallow="pedestrian tram rail_urban rail rail_electric rail_fast ship" speed="9.54" length="19.84" width="3.50" shape="-76.23,-379.64 -79.28,-376.99 -81.69,-374.50 -83.49,-372.24 -85.02,-369.79 -85.97,-367.69 -86.62,-365.47 -86.85,-363.55"/>
    </edge>
    <edge id=":132_1" function="internal">
        <lane id=":132_1_0" index="0" disallow="pedestrian tram rail_urban rail rail_electric rail_fast ship" speed="36.11" length="26.87" width="3.47" shape="-76.23,-379.64 -86.73,-371.25 -97.22,-362.87"/>
    </edge>
    <edge id=":132_2" function="internal">
        <lane id=":132_2_0" index="0" disallow="pedestrian tram rail_urban rail rail_electric rail_fast ship" speed="8.51" length="19.79" width="3.50" shape="-76.23,-379.64 -78.81,-377.73 -81.58,-376.10 -83.94,-375.09 -85.79,-374.58 -87.70,-374.34 -89.62,-374.43 -91.49,-374.89 -93.24,-375.69 -94.21,-376.36"/>
    </edge>
    <edge id=":132_3" function="internal">
        <lane id=":132_3_0" index="0" disallow="pedestrian tram rail_urban rail rail_electric rail_fast ship" speed="7.47" length="9.60" width="3.50" shape="-99.19,-365.77 -98.64,-366.38 -98.10,-367.30 -97.63,-368.83 -97.45,-370.96 -97.65,-373.63 -97.90,-374.90"/>
    </edge>
    <edge id=":132_4" function="internal">
        <lane id=":132_4_0" index="0" disallow="pedestrian tram rail_urban rail rail_electric rail_fast ship" speed="36.11" length="26.59" width="3.50" shape="-99.19,-365.77 -88.90,-373.99 -78.42,-382.37"/>
    </edge>
    <edge id=":132_5" function="internal">
        <lane id=":132_5_0" index="0" disallow="pedestrian tram rail_urban rail rail_electric rail_fast ship" speed="7.10" length="11.01" width="3.50" shape="-99.19,-365.77 -98.92,-365.92 -98.42,-366.12 -97.34,-366.24 -96.27,-366.04 -94.77,-365.37 -92.97,-364.14 -90.54,-361.94 -89.94,-361.29"/>
    </edge>
    <edge id=":133_0" function="internal">
        <lane id=":133_0_0" index="0" disallow="pedestrian tram rail_urban rail rail_electric rail_fast ship" speed="11.19" length="28.89" width="3.50" shape="8.48,-424.72 6.99,-426.49 5.39,-428.12 3.68,-429.58 1.84,-430.81 -0.15,-431.77 -1.13,-432.10 -2.17,-432.36 -3.21,-432.53 -4.27,-432.60 -5.34,-432.58 -6.40,-432.47 -7.44,-432.28 -9.57,-431.64 -11.61,-430.73 -13.56,-429.61 -16.40,-427.57"/>
    </edge>
    <edge id=":133_1" function="internal">
        <lane id=":133_1_0" index="0" disallow="pedestrian tram rail_urban rail rail_electric rail_fast ship" speed="36.11" length="38.79" width="3.50" shape="8.48,-424.72 -3.55,-439.93 -15.57,-455.15"/>
    </edge>
    <edge id=":133_2" function="internal">
        <lane id=":133_2_0" index="0" disallow="pedestrian tram rail_urban rail rail_electric rail_fast ship" speed="12.25" length="34.30" width="3.50" shape="8.48,-424.72 6.97,-426.78 5.61,-428.97 4.44,-431.30 3.52,-433.78 2.94,-436.36 2.79,-437.74 2.75,-439.10 2.84,-440.46 3.04,-441.81 3.36,-443.14 3.78,-444.43 4.32,-445.70 5.60,-448.00 7.16,-450.12 8.92,-452.05 11.76,-454.59"/>
    </edge>
    <edge id=":133_3" function="internal">
        <lane id=":133_3_0" index="0" disallow="pedestrian tram rail_urban rail rail_electric rail_fast ship" speed="11.25" length="28.75" width="3.50" shape="13.95,-451.86 11.49,-449.66 10.00,-448.03 8.69,-446.24 7.61,-444.31 7.18,-443.29 6.84,-442.24 6.58,-441.16 6.41,-440.07 6.35,-438.96 6.38,-437.85 6.50,-436.75 6.98,-434.60 7.75,-432.52 8.75,-430.54 9.92,-428.67 11.23,-426.88"/>
    </edge>
    <edge id=":133_4" function="internal">
        <lane id=":133_4_0" index="0" disallow="pedestrian tram rail_urban rail rail_electric rail_fast ship" speed="36.11" length="38.87" width="3.50" shape="13.95,-451.86 -1.21,-439.73 -16.40,-427.57"/>
    </edge>
    <edge id=":133_5" function="internal">
        <lane id=":133_5_0" index="0" disallow="pedestrian tram rail_urban rail rail_electric rail_fast ship" speed="12.14" length="34.00" width="3.50" shape="13.95,-451.86 11.94,-450.36 9.78,-448.99 7.48,-447.81 5.02,-446.89 2.46,-446.31 1.09,-446.16 -0.26,-446.13 -1.61,-446.22 -2.95,-446.42 -4.27,-446.75 -5.54,-447.18 -6.80,-447.72 -9.07,-449.01 -11.16,-450.56 -13.06,-452.31 -15.57,-455.15"/>
    </edge>
    <edge id=":133_6" function="internal">
        <lane id=":133_6_0" index="0" disallow="pedestrian tram rail_urban rail rail_electric rail_fast ship" speed="11.13" length="28.41" width="3.50" shape="-12.84,-457.33 -10.66,-454.87 -9.05,-453.39 -7.30,-452.09 -5.40,-451.01 -4.39,-450.58 -3.36,-450.23 -2.30,-449.97 -1.22,-449.80 -0.13,-449.73 0.97,-449.75 2.05,-449.87 4.19,-450.35 6.23,-451.12 8.18,-452.12 10.02,-453.29 11.76,-454.59"/>
    </edge>
    <edge id=":133_7" function="internal">
        <lane id=":133_7_0" index="0" disallow="pedestrian tram rail_urban rail rail_electric rail_fast ship" speed="36.11" length="38.81" width="3.50" shape="-12.84,-457.33 -0.80,-442.11 11.23,-426.88"/>
    </edge>
    <edge id=":133_8" function="internal">
        <lane id=":133_8_0" index="0" disallow="pedestrian tram rail_urban rail rail_electric rail_fast ship" speed="12.23" length="34.37" width="3.50" shape="-12.84,-457.33 -10.54,-454.10 -9.23,-451.80 -8.18,-449.38 -7.44,-446.84 -7.21,-445.54 -7.09,-444.23 -7.08,-442.91 -7.19,-441.59 -7.41,-440.29 -7.74,-439.01 -8.18,-437.76 -9.33,-435.39 -10.80,-433.19 -12.50,-431.16 -14.37,-429.30 -16.40,-427.57"/>
    </edge>
    <edge id=":133_9" function="internal">
        <lane id=":133_9_0" index="0" disallow="pedestrian tram rail_urban rail rail_electric rail_fast ship" speed="11.23" length="28.79" width="3.50" shape="-18.58,-430.30 -16.81,-431.81 -15.19,-433.42 -13.75,-435.14 -12.52,-436.98 -11.56,-438.96 -11.21,-439.94 -10.94,-440.97 -10.77,-442.01 -10.68,-443.07 -10.69,-444.13 -10.79,-445.19 -10.96,-446.23 -11.58,-448.35 -12.46,-450.39 -13.57,-452.34 -15.57,-455.15"/>
    </edge>
    <edge id=":133_10" function="internal">
        <lane id=":133_10_0" index="0" disallow="pedestrian tram rail_urban rail rail_electric rail_fast ship" speed="36.11" length="38.87" width="3.50" shape="-18.58,-430.30 -3.40,-442.46 11.76,-454.59"/>
    </edge>
    <edge id=":133_11" function="internal">
        <lane id=":133_11_0" index="0" disallow="pedestrian tram rail_urban rail rail_electric rail_fast ship" speed="12.20" length="34.50" width="3.50" shape="-18.58,-430.30 -15.33,-432.63 -13.03,-433.96 -10.61,-435.03 -8.07,-435.80 -6.77,-436.04 -5.45,-436.18 -4.12,-436.21 -2.80,-436.11 -1.49,-435.90 -0.20,-435.58 1.05,-435.15 3.44,-433.99 5.64,-432.52 7.67,-430.81 9.52,-428.91 11.23,-426.88"/>
    </edge>
    <edge id=":134_0" function="internal">
        <lane id=":134_0_0" index="0" disallow="pedestrian tram rail_urban rail rail_electric rail_fast ship" speed="12.76" length="27.73" width="3.50" shape="6.81,-306.65 4.06,-308.61 1.35,-310.28 -1.50,-311.70 -3.48,-312.46 -5.51,-313.04 -7.60,-313.40 -9.72,-313.51 -11.83,-313.32 -13.90,-312.83 -15.87,-312.06 -17.72,-311.02 -18.56,-310.43"/>
    </edge>
    <edge id=":134_1" function="internal">
        <lane id=":134_1_0" index="0" disallow="pedestrian tram rail_urban rail rail_electric rail_fast ship" speed="36.11" length="39.78" width="3.50" shape="6.81,-306.65 4.24,-308.75 1.26,-311.66 -1.46,-314.81 -4.56,-319.00 -9.10,-325.99 -13.60,-333.01 -16.62,-337.25 -17.25,-338.08"/>
    </edge>
    <edge id=":134_2" function="internal">
        <lane id=":134_2_0" index="0" disallow="pedestrian tram rail_urban rail rail_electric rail_fast ship" speed="36.11" length="38.67" width="3.50" shape="-14.49,-340.23 -13.83,-339.37 -10.81,-335.11 -6.35,-328.14 -1.91,-321.26 1.07,-317.21 3.66,-314.20 6.50,-311.42 8.75,-309.55"/>
    </edge>
    <edge id=":134_3" function="internal">
        <lane id=":134_3_0" index="0" disallow="pedestrian tram rail_urban rail rail_electric rail_fast ship" speed="12.14" length="34.61" width="3.50" shape="-14.49,-340.23 -12.28,-337.07 -11.00,-334.77 -9.96,-332.33 -9.23,-329.78 -8.99,-328.41 -8.87,-327.04 -8.87,-325.66 -9.00,-324.28 -9.25,-322.92 -9.62,-321.59 -10.10,-320.31 -10.70,-319.05 -12.09,-316.79 -13.76,-314.72 -15.61,-312.86 -18.56,-310.43"/>
    </edge>
    <edge id=":134_4" function="internal">
        <lane id=":134_4_0" index="0" disallow="pedestrian tram rail_urban rail rail_electric rail_fast ship" speed="11.13" length="28.94" width="3.50" shape="-20.65,-313.24 -18.08,-315.35 -16.51,-316.93 -15.11,-318.66 -13.95,-320.56 -13.47,-321.57 -13.08,-322.61 -12.78,-323.68 -12.58,-324.78 -12.48,-325.89 -12.48,-327.00 -12.57,-328.11 -12.76,-329.21 -13.37,-331.35 -14.25,-333.39 -15.34,-335.34 -17.25,-338.08"/>
    </edge>
    <edge id=":134_5" function="internal">
        <lane id=":134_5_0" index="0" disallow="pedestrian tram rail_urban rail rail_electric rail_fast ship" speed="13.70" length="32.05" width="3.50" shape="-20.65,-313.24 -19.62,-313.96 -17.46,-315.18 -15.11,-316.14 -12.64,-316.76 -10.12,-317.03 -7.60,-316.95 -5.13,-316.57 -2.74,-315.92 -0.43,-315.06 2.81,-313.48 5.88,-311.61 8.75,-309.55"/>
    </edge>
    <edge id=":135_0" function="internal">
        <lane id=":135_0_0" index="0" disallow="pedestrian tram rail_urban rail rail_electric rail_fast ship" speed="11.12" length="28.62" width="3.50" shape="-49.09,-378.98 -51.35,-381.59 -52.97,-383.11 -54.73,-384.44 -56.65,-385.53 -57.60,-385.94 -58.60,-386.28 -59.63,-386.53 -60.66,-386.68 -61.71,-386.74 -62.77,-386.71 -63.82,-386.59 -64.85,-386.39 -66.96,-385.74 -68.97,-384.82 -70.91,-383.70 -73.71,-381.66"/>
    </edge>
    <edge id=":135_1" function="internal">
        <lane id=":135_1_0" index="0" disallow="pedestrian tram rail_urban rail rail_electric rail_fast ship" speed="12.20" length="33.93" width="3.50" shape="-49.09,-378.98 -50.58,-381.03 -51.92,-383.20 -53.07,-385.51 -53.97,-387.96 -54.54,-390.51 -54.68,-391.88 -54.71,-393.22 -54.62,-394.57 -54.42,-395.91 -54.11,-397.22 -53.69,-398.49 -53.15,-399.75 -51.88,-402.03 -50.34,-404.12 -48.60,-406.03 -45.79,-408.54"/>
    </edge>
    <edge id=":135_2" function="internal">
        <lane id=":135_2_0" index="0" disallow="pedestrian tram rail_urban rail rail_electric rail_fast ship" speed="11.19" length="28.39" width="3.50" shape="-43.59,-405.81 -46.04,-403.64 -47.51,-402.02 -48.80,-400.26 -49.87,-398.35 -50.29,-397.35 -50.63,-396.31 -50.89,-395.25 -51.05,-394.17 -51.11,-393.08 -51.09,-391.99 -50.97,-390.90 -50.50,-388.77 -49.75,-386.72 -48.77,-384.76 -47.62,-382.91 -46.34,-381.14"/>
    </edge>
    <edge id=":135_3" function="internal">
        <lane id=":135_3_0" index="0" disallow="pedestrian tram rail_urban rail rail_electric rail_fast ship" speed="36.11" length="38.61" width="3.50" shape="-43.59,-405.81 -58.64,-393.75 -73.71,-381.66"/>
    </edge>
    <edge id=":135_4" function="internal">
        <lane id=":135_4_0" index="0" disallow="pedestrian tram rail_urban rail rail_electric rail_fast ship" speed="8.75" length="17.28" width="3.50" shape="-61.62,-403.21 -60.19,-402.96 -58.43,-402.89 -56.10,-403.18 -53.84,-403.81 -51.15,-404.99 -48.62,-406.47 -45.79,-408.54"/>
    </edge>
    <edge id=":135_5" function="internal">
        <lane id=":135_5_0" index="0" disallow="pedestrian tram rail_urban rail rail_electric rail_fast ship" speed="36.11" length="26.85" width="3.50" shape="-63.89,-401.45 -50.83,-386.66 -46.34,-381.14"/>
    </edge>
    <edge id=":135_6" function="internal">
        <lane id=":135_6_0" index="0" disallow="pedestrian tram rail_urban rail rail_electric rail_fast ship" speed="9.75" length="21.21" width="3.50" shape="-65.77,-399.99 -65.59,-399.32 -65.30,-397.00 -65.38,-394.66 -65.83,-392.36 -66.64,-390.16 -67.75,-388.10 -69.48,-385.74 -71.49,-383.61 -73.71,-381.66"/>
    </edge>
    <edge id=":135_7" function="internal">
        <lane id=":135_7_0" index="0" disallow="pedestrian tram rail_urban rail rail_electric rail_fast ship" speed="36.11" length="38.61" width="3.50" shape="-75.91,-384.39 -60.83,-396.48 -45.79,-408.54"/>
    </edge>
    <edge id=":135_8" function="internal">
        <lane id=":135_8_0" index="0" disallow="pedestrian tram rail_urban rail rail_electric rail_fast ship" speed="12.13" length="34.25" width="3.50" shape="-75.91,-384.39 -72.69,-386.72 -70.41,-388.04 -68.01,-389.13 -65.50,-389.91 -64.21,-390.16 -62.90,-390.31 -61.58,-390.35 -60.27,-390.27 -58.97,-390.07 -57.69,-389.76 -56.44,-389.34 -55.23,-388.82 -52.94,-387.51 -50.85,-385.92 -48.92,-384.12 -46.34,-381.14"/>
    </edge>
    <edge id=":136_0" function="internal">
        <lane id=":136_0_0" index="0" disallow="pedestrian tram rail_urban rail rail_electric rail_fast ship" speed="15.02" length="34.63" width="3.50" shape="-66.40,-518.99 -69.11,-522.20 -72.04,-525.21 -74.39,-527.30 -76.90,-529.21 -79.57,-530.88 -82.40,-532.26 -84.37,-532.98 -86.40,-533.52 -88.47,-533.87 -90.56,-534.01 -92.66,-533.94 -94.74,-533.66 -95.76,-533.45"/>
    </edge>
    <edge id=":136_1" function="internal">
        <lane id=":136_1_0" index="0" disallow="pedestrian tram rail_urban rail rail_electric rail_fast ship" speed="11.45" length="38.14" width="3.50" shape="-66.40,-518.99 -68.15,-521.34 -69.74,-523.81 -71.08,-526.42 -71.62,-527.78 -72.07,-529.18 -72.39,-530.61 -72.56,-532.07 -72.57,-533.53 -72.39,-534.99 -72.01,-536.40 -71.45,-537.76 -70.72,-539.03 -69.85,-540.21 -68.85,-541.28 -67.77,-542.27 -65.40,-544.00 -62.85,-545.45 -60.19,-546.68 -57.44,-547.74"/>
    </edge>
    <edge id=":136_2" function="internal">
        <lane id=":136_2_0" index="0" disallow="pedestrian tram rail_urban rail rail_electric rail_fast ship" speed="10.40" length="31.21" width="3.50" shape="-56.27,-544.44 -58.66,-543.52 -60.96,-542.46 -63.12,-541.24 -65.11,-539.79 -65.97,-539.01 -66.76,-538.16 -67.44,-537.25 -68.00,-536.29 -68.42,-535.28 -68.71,-534.23 -68.85,-533.14 -68.85,-532.03 -68.71,-530.90 -68.46,-529.76 -68.11,-528.63 -67.67,-527.53 -66.53,-525.32 -65.18,-523.20 -63.66,-521.17"/>
    </edge>
    <edge id=":136_3" function="internal">
        <lane id=":136_3_0" index="0" disallow="pedestrian tram rail_urban rail rail_electric rail_fast ship" speed="36.11" length="41.01" width="3.50" shape="-56.27,-544.44 -60.28,-543.07 -70.34,-539.97 -81.49,-536.92 -95.76,-533.45"/>
    </edge>
    <edge id=":136_4" function="internal">
        <lane id=":136_4_0" index="0" disallow="pedestrian tram rail_urban rail rail_electric rail_fast ship" speed="36.11" length="40.61" width="3.50" shape="-96.55,-536.86 -82.39,-540.31 -71.34,-543.32 -61.39,-546.39 -57.44,-547.74"/>
    </edge>
    <edge id=":136_5" function="internal">
        <lane id=":136_5_0" index="0" disallow="pedestrian tram rail_urban rail rail_electric rail_fast ship" speed="15.83" length="38.58" width="3.50" shape="-96.55,-536.86 -95.37,-537.10 -93.03,-537.42 -90.65,-537.52 -88.26,-537.38 -85.90,-537.01 -83.59,-536.42 -81.34,-535.62 -78.17,-534.12 -75.18,-532.28 -72.40,-530.20 -69.80,-527.91 -66.61,-524.64 -63.66,-521.17"/>
    </edge>
    <edge id=":137_0" function="internal">
        <lane id=":137_0_0" index="0" disallow="pedestrian tram rail_urban rail rail_electric rail_fast ship" speed="11.14" length="29.05" width="3.50" shape="63.49,-468.56 61.24,-471.25 59.61,-472.83 57.85,-474.22 55.93,-475.37 54.96,-475.80 53.95,-476.17 52.92,-476.44 51.87,-476.62 50.80,-476.70 49.73,-476.68 48.66,-476.57 47.62,-476.38 45.48,-475.74 43.43,-474.82 41.46,-473.68 38.62,-471.64"/>
    </edge>
    <edge id=":137_1" function="internal">
        <lane id=":137_1_0" index="0" disallow="pedestrian tram rail_urban rail rail_electric rail_fast ship" speed="36.11" length="41.29" width="3.50" shape="63.49,-468.56 58.05,-476.10 52.93,-483.85 48.12,-491.80 43.61,-499.91 41.70,-503.57"/>
    </edge>
    <edge id=":137_2" function="internal">
        <lane id=":137_2_0" index="0" disallow="pedestrian tram rail_urban rail rail_electric rail_fast ship" speed="12.63" length="36.19" width="3.50" shape="63.49,-468.56 62.04,-470.64 60.75,-472.82 59.66,-475.15 58.83,-477.62 58.32,-480.21 58.19,-482.82 58.29,-484.19 58.49,-485.51 58.81,-486.84 59.70,-489.29 60.90,-491.60 62.35,-493.74 63.98,-495.69 65.76,-497.50 68.59,-499.94"/>
    </edge>
    <edge id=":137_3" function="internal">
        <lane id=":137_3_0" index="0" disallow="pedestrian tram rail_urban rail rail_electric rail_fast ship" speed="11.66" length="30.68" width="3.50" shape="70.75,-497.19 68.26,-495.05 66.72,-493.49 65.32,-491.81 64.08,-490.00 63.06,-488.06 62.31,-486.00 62.05,-484.94 61.87,-483.86 61.79,-482.76 61.88,-480.58 62.29,-478.43 62.98,-476.35 63.91,-474.36 65.02,-472.47 66.29,-470.67"/>
    </edge>
    <edge id=":137_4" function="internal">
        <lane id=":137_4_0" index="0" disallow="pedestrian tram rail_urban rail rail_electric rail_fast ship" speed="36.11" length="41.05" width="3.50" shape="70.75,-497.19 54.69,-484.41 38.62,-471.64"/>
    </edge>
    <edge id=":137_5" function="internal">
        <lane id=":137_5_0" index="0" disallow="pedestrian tram rail_urban rail rail_electric rail_fast ship" speed="11.68" length="35.94" width="3.50" shape="70.75,-497.19 67.38,-494.78 64.98,-493.41 62.44,-492.30 61.13,-491.87 59.79,-491.54 58.42,-491.33 57.04,-491.26 55.66,-491.33 54.29,-491.55 52.96,-491.93 51.68,-492.45 50.46,-493.10 49.31,-493.86 48.22,-494.72 46.26,-496.67 44.55,-498.83 43.04,-501.15 41.70,-503.57"/>
    </edge>
    <edge id=":137_6" function="internal">
        <lane id=":137_6_0" index="0" disallow="pedestrian tram rail_urban rail rail_electric rail_fast ship" speed="10.64" length="29.60" width="3.50" shape="44.81,-505.17 45.97,-503.07 47.26,-501.09 48.71,-499.26 50.35,-497.63 51.20,-496.95 52.11,-496.35 53.07,-495.84 54.06,-495.44 55.08,-495.15 56.13,-494.98 57.20,-494.92 58.28,-494.98 59.36,-495.15 60.44,-495.41 61.49,-495.75 63.63,-496.69 65.66,-497.85 68.59,-499.94"/>
    </edge>
    <edge id=":137_7" function="internal">
        <lane id=":137_7_0" index="0" disallow="pedestrian tram rail_urban rail rail_electric rail_fast ship" speed="36.11" length="40.69" width="3.50" shape="44.81,-505.17 46.69,-501.57 51.14,-493.56 55.89,-485.73 60.93,-478.10 66.29,-470.67"/>
    </edge>
    <edge id=":137_8" function="internal">
        <lane id=":137_8_0" index="0" disallow="pedestrian tram rail_urban rail rail_electric rail_fast ship" speed="13.82" length="37.50" width="3.50" shape="44.81,-505.17 46.30,-501.95 47.51,-498.60 48.36,-495.11 48.68,-492.69 48.76,-490.25 48.57,-487.79 48.11,-485.37 47.37,-483.02 46.37,-480.77 45.15,-478.66 43.71,-476.67 41.30,-474.01 38.62,-471.64"/>
    </edge>
    <edge id=":137_9" function="internal">
        <lane id=":137_9_0" index="0" disallow="pedestrian tram rail_urban rail rail_electric rail_fast ship" speed="12.93" length="32.67" width="3.50" shape="36.43,-474.37 38.80,-476.46 40.92,-478.81 42.15,-480.52 43.21,-482.35 44.06,-484.28 44.68,-486.29 45.06,-488.36 45.21,-490.46 45.14,-492.57 44.86,-494.66 44.11,-497.73 43.03,-500.71 41.70,-503.57"/>
    </edge>
    <edge id=":137_10" function="internal">
        <lane id=":137_10_0" index="0" disallow="pedestrian tram rail_urban rail rail_electric rail_fast ship" speed="36.11" length="41.09" width="3.50" shape="36.43,-474.37 52.51,-487.15 68.59,-499.94"/>
    </edge>
    <edge id=":137_11" function="internal">
        <lane id=":137_11_0" index="0" disallow="pedestrian tram rail_urban rail rail_electric rail_fast ship" speed="12.15" length="34.76" width="3.50" shape="36.43,-474.37 39.69,-476.71 42.00,-478.05 44.44,-479.14 47.00,-479.91 48.31,-480.15 49.64,-480.29 50.98,-480.31 52.31,-480.21 53.63,-479.98 54.92,-479.64 56.18,-479.19 57.39,-478.63 59.69,-477.26 61.79,-475.61 63.70,-473.75 66.29,-470.67"/>
    </edge>
    <edge id=":138_0" function="internal">
        <lane id=":138_0_0" index="0" disallow="pedestrian tram rail_urban rail rail_electric rail_fast ship" speed="11.57" length="29.82" width="3.50" shape="66.55,-350.92 65.07,-352.66 63.48,-354.27 61.78,-355.72 59.96,-356.97 58.03,-357.96 55.97,-358.67 54.96,-358.88 53.91,-359.02 52.85,-359.07 51.82,-359.05 49.65,-358.74 47.54,-358.14 45.49,-357.30 43.51,-356.25 40.63,-354.34"/>
    </edge>
    <edge id=":138_1" function="internal">
        <lane id=":138_1_0" index="0" disallow="pedestrian tram rail_urban rail rail_electric rail_fast ship" speed="36.11" length="39.36" width="3.50" shape="66.55,-350.92 54.35,-366.35 42.15,-381.81"/>
    </edge>
    <edge id=":138_2" function="internal">
        <lane id=":138_2_0" index="0" disallow="pedestrian tram rail_urban rail rail_electric rail_fast ship" speed="12.07" length="34.28" width="3.50" shape="66.55,-350.92 65.03,-352.96 63.66,-355.12 62.46,-357.43 61.52,-359.89 60.91,-362.46 60.75,-363.84 60.71,-365.20 60.79,-366.57 61.00,-367.92 61.33,-369.25 61.77,-370.54 62.33,-371.80 63.67,-374.08 65.29,-376.15 67.10,-378.03 70.03,-380.47"/>
    </edge>
    <edge id=":138_3" function="internal">
        <lane id=":138_3_0" index="0" disallow="pedestrian tram rail_urban rail rail_electric rail_fast ship" speed="11.05" length="28.59" width="3.50" shape="72.13,-377.67 69.59,-375.56 68.06,-373.98 66.71,-372.24 65.61,-370.35 65.16,-369.34 64.81,-368.30 64.55,-367.23 64.38,-366.14 64.32,-365.05 64.35,-363.95 64.48,-362.85 64.99,-360.72 65.78,-358.67 66.79,-356.71 67.98,-354.86 69.29,-353.09"/>
    </edge>
    <edge id=":138_4" function="internal">
        <lane id=":138_4_0" index="0" disallow="pedestrian tram rail_urban rail rail_electric rail_fast ship" speed="36.11" length="39.20" width="3.50" shape="72.13,-377.67 56.39,-366.01 40.63,-354.34"/>
    </edge>
    <edge id=":138_5" function="internal">
        <lane id=":138_5_0" index="0" disallow="pedestrian tram rail_urban rail rail_electric rail_fast ship" speed="12.35" length="34.54" width="3.50" shape="72.13,-377.67 68.81,-375.46 66.47,-374.22 64.00,-373.23 61.44,-372.56 60.12,-372.36 58.80,-372.27 57.47,-372.29 56.15,-372.41 54.84,-372.66 53.56,-373.01 52.32,-373.46 49.94,-374.64 47.74,-376.13 45.72,-377.85 43.87,-379.75 42.15,-381.81"/>
    </edge>
    <edge id=":138_6" function="internal">
        <lane id=":138_6_0" index="0" disallow="pedestrian tram rail_urban rail rail_electric rail_fast ship" speed="11.36" length="29.04" width="3.50" shape="44.90,-383.97 46.40,-382.17 48.01,-380.53 49.73,-379.06 51.57,-377.81 53.56,-376.82 54.55,-376.46 55.59,-376.17 56.64,-375.98 57.70,-375.87 58.78,-375.86 59.85,-375.94 60.90,-376.09 63.06,-376.65 65.14,-377.49 67.14,-378.54 70.03,-380.47"/>
    </edge>
    <edge id=":138_7" function="internal">
        <lane id=":138_7_0" index="0" disallow="pedestrian tram rail_urban rail rail_electric rail_fast ship" speed="36.11" length="39.35" width="3.50" shape="44.90,-383.97 57.10,-368.52 69.29,-353.09"/>
    </edge>
    <edge id=":138_8" function="internal">
        <lane id=":138_8_0" index="0" disallow="pedestrian tram rail_urban rail rail_electric rail_fast ship" speed="12.12" length="34.60" width="3.50" shape="44.90,-383.97 47.21,-380.68 48.50,-378.36 49.54,-375.92 50.26,-373.36 50.47,-372.05 50.57,-370.72 50.55,-369.39 50.42,-368.07 50.16,-366.76 49.78,-365.49 49.30,-364.25 48.05,-361.91 46.49,-359.75 44.70,-357.79 42.74,-356.00 40.63,-354.34"/>
    </edge>
    <edge id=":138_9" function="internal">
        <lane id=":138_9_0" index="0" disallow="pedestrian tram rail_urban rail rail_electric rail_fast ship" speed="11.11" length="28.89" width="3.50" shape="38.56,-357.16 40.39,-358.60 42.09,-360.15 43.61,-361.81 44.91,-363.61 45.95,-365.56 46.33,-366.53 46.63,-367.55 46.84,-368.58 46.95,-369.64 46.96,-370.70 46.88,-371.76 46.72,-372.79 46.12,-374.93 45.25,-376.98 44.15,-378.95 42.15,-381.81"/>
    </edge>
    <edge id=":138_10" function="internal">
        <lane id=":138_10_0" index="0" disallow="pedestrian tram rail_urban rail rail_electric rail_fast ship" speed="36.11" length="39.16" width="3.50" shape="38.56,-357.16 54.30,-368.82 70.03,-380.47"/>
    </edge>
    <edge id=":138_11" function="internal">