<routes>
	<vehicle depart="0.1" departLane="0" departPos="16.647455066108385" departSpeed="1.2405748" id="32" type="passenger">
		<route edges=":48_4 1753"/>
	</vehicle>
	<vehicle depart="0.1" departLane="1" departPos="18.032241020821807" departSpeed="0.31707816" id="37" type="passenger">
		<route edges="2476 1753"/>
	</vehicle>
	<vehicle depart="0.1" departLane="1" departPos="6.013194771586956" departSpeed="0.70981228" id="322" type="passenger">
		<route edges="2476 1753"/>
	</vehicle>
	<vehicle depart="0.1" departLane="0" departPos="14.830299585715824" departSpeed="16.834537" id="326" type="passenger">
		<route edges="1755 2478"/>
	</vehicle>
	<vehicle depart="0.1" departLane="0" departPos="7.680744332944985" departSpeed="0.80848231" id="328" type="passenger">
		<route edges=":48_4 1753"/>
	</vehicle>
	<vehicle depart="0.1" departLane="0" departPos="32.06326815634659" departSpeed="10.59895" id="361" type="passenger">
		<route edges=":48_0 1753 3808 1701"/>
	</vehicle>
	<vehicle depart="0.1" departLane="0" departPos="4.807551130178829" departSpeed="7.6766454" id="369" type="passenger">
		<route edges="2049 2478"/>
	</vehicle>
	<vehicle depart="0.1" departLane="0" departPos="4.891468474783898" departSpeed="1.8806205" id="330" type="motorcycle">
		<route edges="1781 1753"/>
	</vehicle>
</routes>
