<routes>
	<vehicle depart="0.1" departLane="0" departPos="34.515032346670736" departSpeed="5.3746806" id="338" type="bus">
		<route edges="8723 8717"/>
	</vehicle>
	<vehicle depart="0.1" departLane="0" departPos="9.40416834597026" departSpeed="10.452192" id="312" type="passenger">
		<route edges=":49_4 8715 9773 8826"/>
	</vehicle>
	<vehicle depart="0.1" departLane="0" departPos="13.596815367261103" departSpeed="9.0536825" id="315" type="passenger">
		<route edges=":48_5 8770 8773"/>
	</vehicle>
	<vehicle depart="0.1" departLane="0" departPos="68.80359890484068" departSpeed="6.0540475" id="318" type="passenger">
		<route edges="8723 8717"/>
	</vehicle>
	<vehicle depart="0.1" departLane="0" departPos="13.996886914950556" departSpeed="1.2087022" id="330" type="passenger">
		<route edges=":49_0 8718"/>
	</vehicle>
	<vehicle depart="0.1" departLane="0" departPos="51.18540321406153" departSpeed="4.3609132" id="344" type="passenger">
		<route edges="8723 8770"/>
	</vehicle>
	<vehicle depart="0.1" departLane="0" departPos="7.612514137927562" departSpeed="7.1180365" id="359" type="passenger">
		<route edges=":50_1 8992 9610"/>
	</vehicle>
	<vehicle depart="0.1" departLane="1" departPos="59.02461044672712" departSpeed="9.0787163" id="366" type="passenger">
		<route edges="8777 8992"/>
	</vehicle>
	<vehicle depart="0.1" departLane="0" departPos="14.074714684367137" departSpeed="1.6355867" id="33" type="motorcycle">
		<route edges=":50_0 8998"/>
	</vehicle>
	<vehicle depart="0.1" departLane="0" departPos="25.000345727899905" departSpeed="4.4769177" id="328" type="truck">
		<route edges=":49_0 8718 8724"/>
	</vehicle>
</routes>
