<routes>
	<vehicle depart="0.1" departLane="0" departPos="67.59955361763312" departSpeed="0.10079977" id="315" type="bicycle">
		<route edges="13358 13272"/>
	</vehicle>
	<vehicle depart="0.1" departLane="0" departPos="62.30356929834901" departSpeed="0.56330454" id="36" type="passenger">
		<route edges="13358 13272"/>
	</vehicle>
	<vehicle depart="0.1" departLane="0" departPos="66.4820356313815" departSpeed="1.4860488" id="310" type="passenger">
		<route edges="13269 13357"/>
	</vehicle>
	<vehicle depart="0.1" departLane="0" departPos="43.6521243243732" departSpeed="0.072082763" id="311" type="passenger">
		<route edges="13269 13357"/>
	</vehicle>
	<vehicle depart="0.1" departLane="0" departPos="22.364329055660306" departSpeed="10.110716" id="339" type="passenger">
		<route edges=":17_3 13357"/>
	</vehicle>
	<vehicle depart="0.1" departLane="0" departPos="49.921895194361696" departSpeed="8.164656" id="342" type="passenger">
		<route edges="13271 13268"/>
	</vehicle>
	<vehicle depart="0.1" departLane="0" departPos="35.66663695386726" departSpeed="5.1333136" id="344" type="passenger">
		<route edges="13271 13357"/>
	</vehicle>
	<vehicle depart="0.1" departLane="0" departPos="25.597695697531623" departSpeed="0.12372349" id="345" type="passenger">
		<route edges="13271 13357"/>
	</vehicle>
	<vehicle depart="0.1" departLane="0" departPos="35.301312563454765" departSpeed="0.78159923" id="35" type="motorcycle">
		<route edges=":17_5 13387"/>
	</vehicle>
	<vehicle depart="0.1" departLane="0" departPos="27.655017784903684" departSpeed="1.4849461" id="30" type="truck">
		<route edges=":17_8 13272"/>
	</vehicle>
</routes>
