<!-- generated on Tue Feb  9 22:14:34 2021 by Eclipse SUMO netconvert Version 1.8.0
<configuration xmlns:xsi="http://www.w3.org/2001/XMLSchema-instance" xsi:noNamespaceSchemaLocation="http://sumo.dlr.de/xsd/netconvertConfiguration.xsd">

    <input>
        <node-files value="./converted_scenarios/scenario-factory/DEU_Hennigsdorf-9_1_I-1-1/DEU_Hennigsdorf-9_1_I-1-1.nod.xml"/>
        <edge-files value="./converted_scenarios/scenario-factory/DEU_Hennigsdorf-9_1_I-1-1/DEU_Hennigsdorf-9_1_I-1-1.edg.xml"/>
        <connection-files value="./converted_scenarios/scenario-factory/DEU_Hennigsdorf-9_1_I-1-1/DEU_Hennigsdorf-9_1_I-1-1.con.xml"/>
        <tllogic-files value="./converted_scenarios/scenario-factory/DEU_Hennigsdorf-9_1_I-1-1/DEU_Hennigsdorf-9_1_I-1-1.tll.xml"/>
        <type-files value="/home/zen/commonroad-interactive-benchmarks/install/commonroad-map-tool/crmapconverter/sumo_map/templates/DEU.typ.xml"/>
    </input>

    <output>
        <output-file value="./converted_scenarios/scenario-factory/DEU_Hennigsdorf-9_1_I-1-1/DEU_Hennigsdorf-9_1_I-1-1.net.xml"/>
    </output>

    <processing>
        <geometry.remove.keep-edges.explicit value="true"/>
        <geometry.avoid-overlap value="true"/>
        <offset.disable-normalization value="true"/>
    </processing>

    <junctions>
        <no-turnarounds value="true"/>
        <junctions.internal-link-detail value="20"/>
    </junctions>

    <report>
        <aggregate-warnings value="5"/>
    </report>

    <random_number>
        <seed value="1234"/>
    </random_number>

</configuration>
--><net xmlns:xsi="http://www.w3.org/2001/XMLSchema-instance" version="1.6" junctionCornerDetail="5" junctionLinkDetail="20" limitTurnSpeed="5.50" xsi:noNamespaceSchemaLocation="http://sumo.dlr.de/xsd/net_file.xsd">

    <location netOffset="0.00,0.00" convBoundary="165.57,512.70,291.77,713.33" origBoundary="165.57,512.57,294.82,713.33" projParameter="!"/>

    <type id="highway.bridleway" priority="1" speed="2.78" allow="pedestrian" oneway="1" width="2.00"/>
    <type id="highway.bus_guideway" priority="1" speed="27.78" allow="bus" oneway="1"/>
    <type id="highway.cycleway" priority="1" speed="8.33" allow="bicycle" oneway="0" width="1.00"/>
    <type id="highway.footway" priority="1" speed="2.78" allow="pedestrian" oneway="1" width="2.00"/>
    <type id="highway.ford" priority="1" speed="2.78" allow="army" oneway="0"/>
    <type id="highway.living_street" priority="2" speed="2.78" disallow="tram rail_urban rail rail_electric rail_fast ship" oneway="0"/>
    <type id="highway.motorway" priority="14" speed="39.44" allow="private emergency authority army vip passenger hov taxi bus coach delivery truck trailer motorcycle evehicle custom1 custom2" oneway="1"/>
    <type id="highway.motorway_link" priority="9" speed="22.22" allow="private emergency authority army vip passenger hov taxi bus coach delivery truck trailer motorcycle evehicle custom1 custom2" oneway="1"/>
    <type id="highway.path" priority="1" speed="2.78" allow="pedestrian bicycle" oneway="0" width="2.00"/>
    <type id="highway.pedestrian" priority="1" speed="2.78" allow="pedestrian" oneway="1" width="2.00"/>
    <type id="highway.primary" priority="12" speed="27.78" disallow="pedestrian tram rail_urban rail rail_electric rail_fast ship" oneway="0"/>
    <type id="highway.primary_link" priority="7" speed="22.22" disallow="pedestrian tram rail_urban rail rail_electric rail_fast ship" oneway="0"/>
    <type id="highway.raceway" priority="15" speed="83.33" allow="vip" oneway="0"/>
    <type id="highway.residential" priority="3" speed="13.89" disallow="pedestrian tram rail_urban rail rail_electric rail_fast ship" oneway="0"/>
    <type id="highway.secondary" priority="11" speed="27.78" disallow="pedestrian tram rail_urban rail rail_electric rail_fast ship" oneway="0"/>
    <type id="highway.secondary_link" priority="6" speed="22.22" disallow="pedestrian tram rail_urban rail rail_electric rail_fast ship" oneway="0"/>
    <type id="highway.service" priority="1" speed="5.56" allow="pedestrian delivery bicycle" oneway="0"/>
    <type id="highway.stairs" priority="1" speed="1.39" allow="pedestrian" oneway="1" width="2.00"/>
    <type id="highway.step" priority="1" speed="1.39" allow="pedestrian" oneway="1" width="2.00"/>
    <type id="highway.steps" priority="1" speed="1.39" allow="pedestrian" oneway="1" width="2.00"/>
    <type id="highway.tertiary" priority="10" speed="22.22" disallow="pedestrian tram rail_urban rail rail_electric rail_fast ship" oneway="0"/>
    <type id="highway.tertiary_link" priority="5" speed="22.22" disallow="pedestrian tram rail_urban rail rail_electric rail_fast ship" oneway="0"/>
    <type id="highway.track" priority="1" speed="5.56" allow="pedestrian motorcycle moped bicycle" oneway="0"/>
    <type id="highway.trunk" priority="13" speed="27.78" disallow="pedestrian bicycle tram rail_urban rail rail_electric rail_fast ship" oneway="0"/>
    <type id="highway.trunk_link" priority="8" speed="22.22" disallow="pedestrian bicycle tram rail_urban rail rail_electric rail_fast ship" oneway="0"/>
    <type id="highway.unclassified" priority="4" speed="13.89" disallow="pedestrian tram rail_urban rail rail_electric rail_fast ship" oneway="0"/>
    <type id="highway.unsurfaced" priority="1" speed="8.33" disallow="tram rail_urban rail rail_electric rail_fast ship" oneway="0"/>
    <type id="railway.highspeed" priority="21" speed="69.44" allow="rail_fast" oneway="1"/>
    <type id="railway.light_rail" priority="19" speed="27.78" allow="rail_urban" oneway="1"/>
    <type id="railway.preserved" priority="16" speed="27.78" allow="rail" oneway="1"/>
    <type id="railway.rail" priority="20" speed="44.44" allow="rail" oneway="1"/>
    <type id="railway.subway" priority="18" speed="27.78" allow="rail_urban" oneway="1"/>
    <type id="railway.tram" priority="17" speed="13.89" allow="tram" oneway="1"/>

    <edge id=":11_0" function="internal">
        <lane id=":11_0_0" index="0" disallow="pedestrian tram rail_urban rail rail_electric rail_fast ship" speed="36.11" length="2.95" width="3.50" shape="225.32,585.58 222.75,587.02"/>
    </edge>
    <edge id=":16_0" function="internal">
        <lane id=":16_0_0" index="0" disallow="pedestrian tram rail_urban rail rail_electric rail_fast ship" speed="36.11" length="2.95" width="3.50" shape="199.14,598.81 196.57,600.25"/>
    </edge>
    <edge id=":25_0" function="internal">
        <lane id=":25_0_0" index="0" disallow="pedestrian tram rail_urban rail rail_electric rail_fast ship" speed="10.40" length="33.50" width="3.50" shape="258.72,590.45 258.32,586.36 257.78,583.68 256.94,581.08 256.04,579.24 254.84,577.58 253.85,576.64 252.71,575.88 251.46,575.34 250.13,575.01 248.08,574.90 246.05,575.14 243.41,575.83 240.24,577.11 236.60,579.03"/>
    </edge>
    <edge id=":25_1" function="internal">
        <lane id=":25_1_0" index="0" disallow="pedestrian tram rail_urban rail rail_electric rail_fast ship" speed="36.11" length="58.49" width="3.50" shape="258.72,590.45 256.81,558.23 254.95,532.08"/>
    </edge>
    <edge id=":25_2" function="internal">
        <lane id=":25_2_0" index="0" disallow="pedestrian tram rail_urban rail rail_electric rail_fast ship" speed="31.52" length="52.84" width="3.50" shape="262.22,590.25 262.31,588.49 262.72,586.40 263.42,584.01 264.37,581.38 265.54,578.55 266.90,575.56 268.40,572.47 270.01,569.30 271.70,566.12 273.44,562.96 275.17,559.87 276.89,556.89 278.53,554.07 280.08,551.45 281.50,549.09 282.74,547.02 283.79,545.28 284.59,543.93 285.12,543.01"/>
    </edge>
    <edge id=":25_3" function="internal">
        <lane id=":25_3_0" index="0" disallow="pedestrian tram rail_urban rail rail_electric rail_fast ship" speed="19.37" length="55.92" width="3.50" shape="293.34,545.62 283.88,551.37 280.48,553.96 277.71,556.46 275.16,559.20 272.87,562.15 270.88,565.32 269.21,568.66 267.87,572.15 266.85,575.74 266.15,579.42 265.72,583.67 265.64,587.94 265.71,590.07"/>
    </edge>
    <edge id=":25_4" function="internal">
        <lane id=":25_4_0" index="0" disallow="pedestrian tram rail_urban rail rail_electric rail_fast ship" speed="36.11" length="65.85" width="3.50" shape="293.34,545.62 262.04,564.05 236.60,579.03"/>
    </edge>
    <edge id=":25_5" function="internal">
        <lane id=":25_5_0" index="0" disallow="pedestrian tram rail_urban rail rail_electric rail_fast ship" speed="36.11" length="58.64" width="3.50" shape="261.93,531.55 264.15,563.32 265.71,590.07"/>
    </edge>
    <edge id=":25_6" function="internal">
        <lane id=":25_6_0" index="0" disallow="pedestrian tram rail_urban rail rail_electric rail_fast ship" speed="18.93" length="55.20" width="3.50" shape="258.45,531.81 258.68,537.17 258.55,541.99 258.07,546.79 257.30,551.00 256.18,555.14 254.88,558.66 253.29,562.05 251.39,565.29 249.19,568.33 246.72,571.15 244.01,573.74 241.09,576.09 237.53,578.48 236.60,579.03"/>
    </edge>
    <edge id=":25_7" function="internal">
        <lane id=":25_7_0" index="0" disallow="pedestrian tram rail_urban rail rail_electric rail_fast ship" speed="17.90" length="49.24" width="3.50" shape="233.08,572.98 237.14,570.39 240.55,567.79 243.33,565.28 245.88,562.54 248.18,559.58 250.17,556.41 251.83,553.05 253.15,549.54 254.12,545.93 254.75,542.23 255.09,537.97 255.05,533.68 254.95,532.08"/>
    </edge>
    <edge id=":25_8" function="internal">
        <lane id=":25_8_0" index="0" disallow="pedestrian tram rail_urban rail rail_electric rail_fast ship" speed="36.11" length="45.42" width="3.50" shape="233.08,572.98 272.22,549.93"/>
    </edge>
    <edge id=":25_9" function="internal">
        <lane id=":25_9_0" index="0" disallow="pedestrian tram rail_urban rail rail_electric rail_fast ship" speed="12.06" length="45.58" width="3.50" shape="234.84,576.00 239.04,573.74 242.76,572.07 245.98,570.95 248.62,570.31 251.33,570.00 253.37,570.04 255.38,570.38 257.30,571.07 259.04,572.12 260.56,573.48 261.82,575.09 262.84,576.85 263.88,579.37 264.78,582.65 265.35,586.00 265.71,590.07"/>
    </edge>
    <edge id=":27_0" function="internal">
        <lane id=":27_0_0" index="0" disallow="pedestrian tram rail_urban rail rail_electric rail_fast ship" speed="36.11" length="7.94" width="3.50" shape="262.55,633.08 261.24,625.25"/>
        <lane id=":27_0_1" index="1" disallow="pedestrian tram rail_urban rail rail_electric rail_fast ship" speed="36.11" length="7.85" width="3.50" shape="263.61,632.97 263.58,631.13 263.62,625.12"/>
    </edge>
    <edge id=":28_0" function="internal">
        <lane id=":28_0_0" index="0" disallow="pedestrian tram rail_urban rail rail_electric rail_fast ship" speed="36.11" length="8.04" width="3.50" shape="205.02,590.66 211.63,586.09"/>
        <lane id=":28_0_1" index="1" disallow="pedestrian tram rail_urban rail rail_electric rail_fast ship" speed="36.11" length="8.04" width="3.50" shape="205.58,591.61 212.84,588.15"/>
    </edge>
    <edge id=":5_0" function="internal">
        <lane id=":5_0_0" index="0" disallow="pedestrian tram rail_urban rail rail_electric rail_fast ship" speed="36.11" length="2.98" width="3.50" shape="266.93,612.82 267.06,615.80"/>
    </edge>
    <edge id=":6_0" function="internal">
        <lane id=":6_0_0" index="0" disallow="pedestrian tram rail_urban rail rail_electric rail_fast ship" speed="36.11" length="2.95" width="3.50" shape="267.48,641.77 267.75,644.71"/>
    </edge>

    <edge id="1701" from="16" to="17" priority="3" type="highway.residential" spreadType="center" length="33.82">
        <lane id="1701_0" index="0" disallow="pedestrian tram rail_urban rail rail_electric rail_fast ship" speed="36.11" length="33.82" width="3.50" customShape="1" shape="196.57,600.25 182.58,608.36 167.32,617.22"/>
    </edge>
    <edge id="1702" from="22" to="28" priority="3" type="highway.residential" spreadType="center" length="45.93">
        <lane id="1702_0" index="0" disallow="pedestrian tram rail_urban rail rail_electric rail_fast ship" speed="36.11" length="45.93" width="3.50" customShape="1" shape="165.57,614.19 180.83,605.34 205.30,591.14"/>
    </edge>
    <edge id="1753" from="25" to="11" priority="3" type="highway.residential" spreadType="center" length="13.04" shape="258.40,565.48 224.05,586.33">
        <lane id="1753_0" index="0" disallow="pedestrian tram rail_urban rail rail_electric rail_fast ship" speed="36.11" length="13.04" width="3.50" customShape="1" shape="236.60,579.03 230.33,582.68 225.32,585.58"/>
    </edge>
    <edge id="1755" from="28" to="25" priority="3" type="highway.residential" spreadType="center" length="25.13" shape="208.76,589.13 255.82,560.91">
        <lane id="1755_0" index="0" disallow="pedestrian tram rail_urban rail rail_electric rail_fast ship" speed="36.11" length="25.13" width="3.50" customShape="1" shape="211.35,585.61 226.81,576.62 233.08,572.98"/>
        <lane id="1755_1" index="1" disallow="pedestrian tram rail_urban rail rail_electric rail_fast ship" speed="36.11" length="25.15" width="3.50" customShape="1" shape="213.12,588.63 228.57,579.65 234.86,575.99"/>
    </edge>
    <edge id="1781" from="21" to="25" priority="3" type="highway.residential" spreadType="center" length="0.20" shape="291.77,544.51 259.16,567.06">
        <lane id="1781_0" index="0" disallow="pedestrian tram rail_urban rail rail_electric rail_fast ship" speed="36.11" length="0.20" width="3.50" customShape="1" shape="293.51,545.52 293.34,545.62"/>
        <lane id="1781_1" index="1" disallow="pedestrian tram rail_urban rail rail_electric rail_fast ship" speed="36.11" length="0.72" width="3.50" customShape="1" shape="290.88,543.01 290.26,543.37"/>
    </edge>
    <edge id="2047" from="25" to="5" priority="3" type="highway.residential" spreadType="center" length="22.78" shape="259.15,563.69 267.01,614.31">
        <lane id="2047_0" index="0" disallow="pedestrian tram rail_urban rail rail_electric rail_fast ship" speed="36.11" length="22.78" width="3.50" customShape="1" shape="265.71,590.07 266.36,602.18 266.93,612.82"/>
    </edge>
    <edge id="2049" from="27" to="25" priority="3" type="highway.residential" spreadType="center" length="34.88" shape="263.81,629.04 253.95,564.36">
        <lane id="2049_0" index="0" disallow="pedestrian tram rail_urban rail rail_electric rail_fast ship" speed="36.11" length="34.88" width="3.50" customShape="1" shape="260.58,625.28 259.37,602.56 258.72,590.45"/>
        <lane id="2049_1" index="1" disallow="pedestrian tram rail_urban rail rail_electric rail_fast ship" speed="36.11" length="34.90" width="3.50" customShape="1" shape="264.08,625.10 262.86,602.37 262.22,590.25"/>
    </edge>
    <edge id="2476" from="20" to="25" priority="3" type="highway.residential" spreadType="center" length="19.04" shape="258.75,512.70 260.93,564.11">
        <lane id="2476_0" index="0" disallow="pedestrian tram rail_urban rail rail_electric rail_fast ship" speed="36.11" length="19.04" width="3.50" customShape="1" shape="260.49,512.56 261.21,522.06 261.93,531.55"/>
        <lane id="2476_1" index="1" disallow="pedestrian tram rail_urban rail rail_electric rail_fast ship" speed="36.11" length="19.06" width="3.50" customShape="1" shape="257.00,512.82 257.72,522.32 258.45,531.82"/>
    </edge>
    <edge id="2478" from="25" to="12" priority="3" type="highway.residential" spreadType="center" length="19.07" shape="255.68,564.15 253.51,513.06">
        <lane id="2478_0" index="0" disallow="pedestrian tram rail_urban rail rail_electric rail_fast ship" speed="36.11" length="19.07" width="3.50" customShape="1" shape="254.95,532.08 254.23,522.59 253.51,513.06"/>
    </edge>
    <edge id="2551" from="6" to="7" priority="3" type="highway.residential" spreadType="center" length="68.52">
        <lane id="2551_0" index="0" disallow="pedestrian tram rail_urban rail rail_electric rail_fast ship" speed="36.11" length="68.52" width="3.50" customShape="1" shape="267.75,644.71 268.50,651.70 271.26,680.20 271.95,689.21 272.14,696.23 271.98,701.25 271.24,708.75 270.81,712.97"/>
    </edge>
    <edge id="2552" from="4" to="27" priority="3" type="highway.residential" spreadType="center" length="80.63">
        <lane id="2552_0" index="0" disallow="pedestrian tram rail_urban rail rail_electric rail_fast ship" speed="36.11" length="80.63" width="3.50" customShape="1" shape="267.26,713.33 267.72,708.72 268.47,701.29 268.64,696.38 268.46,689.46 267.77,680.51 265.02,652.07 262.97,633.04"/>
    </edge>
    <edge id="3554" from="5" to="6" priority="3" type="highway.residential" spreadType="center" length="25.98">
        <lane id="3554_0" index="0" disallow="pedestrian tram rail_urban rail rail_electric rail_fast ship" speed="36.11" length="25.98" width="3.50" customShape="1" shape="267.06,615.80 267.15,618.51 267.07,630.97 267.20,638.15 267.48,641.77"/>
    </edge>
    <edge id="3555" from="25" to="26" priority="3" type="highway.residential" spreadType="center" length="0.20" shape="256.34,562.65 283.93,543.03">
        <lane id="3555_0" index="0" disallow="pedestrian tram rail_urban rail rail_electric rail_fast ship" speed="36.11" length="0.20" width="3.50" customShape="1" shape="285.12,543.01 285.22,542.84"/>
    </edge>
    <edge id="3808" from="11" to="16" priority="3" type="highway.residential" spreadType="center" length="26.40">
        <lane id="3808_0" index="0" disallow="pedestrian tram rail_urban rail rail_electric rail_fast ship" speed="36.11" length="26.40" width="3.50" customShape="1" shape="222.75,587.02 218.51,589.31 203.37,596.53 199.14,598.81"/>
    </edge>
    <edge id="3810" from="25" to="26" priority="3" type="highway.residential" spreadType="center" length="13.59">
        <lane id="3810_0" index="0" disallow="pedestrian tram rail_urban rail rail_electric rail_fast ship" speed="36.11" length="13.59" width="3.50" customShape="1" shape="272.22,549.93 283.93,543.03"/>
    </edge>

    <junction id="11" type="priority" x="224.05" y="586.33" incLanes="1753_0" intLanes=":11_0_0" shape="226.20,587.10 224.44,584.07 221.92,585.48 223.58,588.57" rightOfWay="edgePriority">
        <request index="0" response="0" foes="0" cont="0"/>
    </junction>
    <junction id="12" type="dead_end" x="253.51" y="513.06" incLanes="2478_0" intLanes="" shape="251.77,513.20 255.26,512.93" rightOfWay="edgePriority"/>
    <junction id="16" type="priority" x="197.84" y="599.51" incLanes="3808_0" intLanes=":16_0_0" shape="199.97,600.35 198.31,597.27 195.69,598.74 197.45,601.77" rightOfWay="edgePriority">
        <request index="0" response="0" foes="0" cont="0"/>
    </junction>
    <junction id="17" type="dead_end" x="167.32" y="617.22" incLanes="1701_0" intLanes="" shape="168.20,618.73 166.44,615.70" rightOfWay="edgePriority"/>
    <junction id="20" type="dead_end" x="258.75" y="512.70" incLanes="" intLanes="" shape="255.26,512.96 262.24,512.43" rightOfWay="edgePriority"/>
    <junction id="21" type="dead_end" x="291.77" y="544.51" incLanes="" intLanes="" shape="290.00,541.50 293.55,547.53" rightOfWay="edgePriority"/>
    <junction id="22" type="dead_end" x="165.57" y="614.19" incLanes="" intLanes="" shape="166.44,615.70 164.69,612.68" rightOfWay="edgePriority"/>
    <junction id="25" type="priority" x="257.43" y="564.02" incLanes="2049_0 2049_1 1781_0 1781_1 2476_0 2476_1 1755_0 1755_1" intLanes=":25_0_0 :25_1_0 :25_2_0 :25_3_0 :25_4_0 :25_5_0 :25_6_0 :25_7_0 :25_8_0 :25_9_0" shape="256.98,590.54 267.46,589.98 296.16,545.99 288.30,542.50 288.21,542.35 283.31,541.35 273.11,551.44 271.33,548.42 269.06,548.92 267.27,547.64 265.90,544.91 264.88,541.08 264.17,536.47 263.68,531.41 253.21,532.21 253.17,540.50 251.75,548.08 248.94,554.97 244.75,561.17 239.17,566.67 232.20,571.46 237.48,580.54 242.53,578.31 247.07,577.71 250.93,578.69 253.97,581.19 256.04,585.16">
        <request index="0" response="0000010000" foes="0001010000" cont="0"/>
        <request index="1" response="1110010000" foes="1111010000" cont="0"/>
        <request index="2" response="1000110000" foes="1000110000" cont="0"/>
        <request index="3" response="0000000000" foes="1000100000" cont="0"/>
        <request index="4" response="0000000000" foes="1001100111" cont="0"/>
        <request index="5" response="1100011000" foes="1100011100" cont="0"/>
        <request index="6" response="1100010011" foes="1100010011" cont="0"/>
        <request index="7" response="0000000000" foes="0000000010" cont="0"/>
        <request index="8" response="0000000000" foes="0001100010" cont="0"/>
        <request index="9" response="0000011000" foes="0001111110" cont="0"/>
    </junction>
    <junction id="26" type="dead_end" x="283.93" y="543.03" incLanes="3555_0 3810_0" intLanes="" shape="282.98,541.57 284.89,544.50 283.05,541.53 284.82,544.54"/>
    <junction id="27" type="priority" x="263.81" y="629.04" incLanes="2552_0" intLanes=":27_0_0 :27_0_1" shape="261.23,633.22 264.71,632.85 264.85,629.94 265.19,628.93 265.53,627.92 265.79,626.68 265.82,625.00 258.83,625.37 259.45,628.32 259.95,629.30 260.46,630.29 260.91,631.51">
        <request index="0" response="00" foes="00" cont="0"/>
        <request index="1" response="00" foes="00" cont="0"/>
    </junction>
    <junction id="28" type="priority" x="208.76" y="589.13" incLanes="1702_0" intLanes=":28_0_0 :28_0_1" shape="214.00,590.14 210.46,584.10 208.11,585.99 206.78,587.74 205.86,588.65 204.42,589.63 206.18,592.65 209.00,591.54 211.19,591.25 212.44,590.90">
        <request index="0" response="00" foes="00" cont="0"/>
        <request index="1" response="00" foes="00" cont="0"/>
    </junction>
    <junction id="4" type="dead_end" x="267.26" y="713.33" incLanes="" intLanes="" shape="269.00,713.50 265.52,713.16" rightOfWay="edgePriority"/>
    <junction id="5" type="priority" x="267.01" y="614.31" incLanes="2047_0" intLanes=":5_0_0" shape="265.31,615.86 268.81,615.74 268.67,612.73 265.18,612.92" rightOfWay="edgePriority">
        <request index="0" response="0" foes="0" cont="0"/>
    </junction>
    <junction id="6" type="priority" x="267.59" y="643.24" incLanes="3554_0" intLanes=":6_0_0" shape="266.01,644.90 269.49,644.52 269.22,641.63 265.73,641.90" rightOfWay="edgePriority">
        <request index="0" response="0" foes="0" cont="0"/>
    </junction>
    <junction id="7" type="dead_end" x="270.81" y="712.97" incLanes="2551_0" intLanes="" shape="272.56,713.14 269.07,712.80" rightOfWay="edgePriority"/>

    <connection from="1702" to="1755" fromLane="0" toLane="0" contPos="-4.00" shape="196.10,596.48 201.24,593.28 215.80,583.20 220.53,580.27" via=":28_0_0" dir="s" state="M"/>
    <connection from="1702" to="1755" fromLane="0" toLane="1" contPos="-4.00" shape="196.10,596.48 201.70,593.46 216.84,586.24 222.31,583.29" via=":28_0_1" dir="s" state="M"/>
    <connection from="1753" to="3808" fromLane="0" toLane="0" contPos="-4.00" via=":11_0_0" dir="s" state="M"/>
    <connection from="1755" to="2478" fromLane="0" toLane="0" contPos="-4.00" shape="233.08,572.98 237.14,570.39 240.55,567.79 243.33,565.28 245.88,562.54 248.18,559.58 250.17,556.41 251.83,553.05 253.15,549.54 254.12,545.93 254.75,542.23 255.09,537.97 255.05,533.68 254.95,532.08" via=":25_7_0" dir="r" state="M"/>
    <connection from="1755" to="3810" fromLane="0" toLane="0" contPos="-4.00" via=":25_8_0" dir="s" state="M"/>
    <connection from="1755" to="2047" fromLane="1" toLane="0" contPos="-4.00" shape="234.86,575.99 239.04,573.74 242.76,572.07 245.98,570.95 248.62,570.31 251.33,570.00 253.37,570.04 255.38,570.38 257.30,571.07 259.04,572.12 260.56,573.48 261.82,575.09 262.84,576.85 263.88,579.37 264.78,582.65 265.35,586.00 265.71,590.07" via=":25_9_0" dir="l" state="m"/>
    <connection from="1781" to="2047" fromLane="0" toLane="0" contPos="-4.00" shape="287.48,549.07 283.88,551.37 280.48,553.96 277.71,556.46 275.16,559.20 272.87,562.15 270.88,565.32 269.21,568.66 267.87,572.15 266.85,575.74 266.15,579.42 265.72,583.67 265.64,587.94 265.71,590.07" via=":25_3_0" dir="r" state="M"/>
    <connection from="1781" to="1753" fromLane="0" toLane="0" contPos="-4.00" shape="287.48,549.07 262.04,564.05 236.60,579.03" via=":25_4_0" dir="s" state="M"/>
    <connection from="2047" to="3554" fromLane="0" toLane="0" contPos="-4.00" via=":5_0_0" dir="s" state="M"/>
    <connection from="2049" to="1753" fromLane="0" toLane="0" contPos="-4.00" shape="258.72,590.45 258.32,586.36 257.78,583.68 256.94,581.08 256.04,579.24 254.84,577.58 253.85,576.64 252.71,575.88 251.46,575.34 250.13,575.01 248.08,574.90 246.05,575.14 243.41,575.83 240.24,577.11 236.60,579.03" via=":25_0_0" dir="r" state="m"/>
    <connection from="2049" to="2478" fromLane="0" toLane="0" contPos="-4.00" shape="258.72,590.45 256.81,558.23 254.95,532.08" via=":25_1_0" dir="s" state="m"/>
    <connection from="2049" to="3555" fromLane="1" toLane="0" contPos="-4.00" via=":25_2_0" dir="l" state="m"/>
    <connection from="2476" to="2047" fromLane="0" toLane="0" contPos="-4.00" shape="261.93,531.55 264.15,563.32 265.71,590.07" via=":25_5_0" dir="s" state="m"/>
    <connection from="2476" to="1753" fromLane="1" toLane="0" contPos="-4.00" shape="258.45,531.82 258.68,537.17 258.55,541.99 258.07,546.79 257.30,551.00 256.18,555.14 254.88,558.66 253.29,562.05 251.39,565.29 249.19,568.33 246.72,571.15 244.01,573.74 241.09,576.09 237.53,578.48 236.60,579.03" via=":25_6_0" dir="l" state="m"/>
    <connection from="2552" to="2049" fromLane="0" toLane="0" contPos="-4.00" shape="264.11,643.61 263.12,636.49 260.83,622.83 260.15,616.71 260.02,614.66" via=":27_0_0" dir="s" state="M"/>
    <connection from="2552" to="2049" fromLane="0" toLane="1" contPos="-4.00" shape="264.11,643.61 263.71,638.41 263.58,631.13 263.65,618.64 263.51,614.48" via=":27_0_1" dir="s" state="M"/>
    <connection from="3554" to="2551" fromLane="0" toLane="0" contPos="-4.00" via=":6_0_0" dir="s" state="M"/>
    <connection from="3808" to="1701" fromLane="0" toLane="0" contPos="-4.00" via=":16_0_0" dir="s" state="M"/>

    <connection from=":11_0" to="3808" fromLane="0" toLane="0" dir="s" state="M"/>
    <connection from=":16_0" to="1701" fromLane="0" toLane="0" dir="s" state="M"/>
    <connection from=":25_0" to="1753" fromLane="0" toLane="0" dir="r" state="M"/>
    <connection from=":25_1" to="2478" fromLane="0" toLane="0" dir="s" state="M"/>
    <connection from=":25_2" to="3555" fromLane="0" toLane="0" dir="l" state="M"/>
    <connection from=":25_3" to="2047" fromLane="0" toLane="0" dir="r" state="M"/>
    <connection from=":25_4" to="1753" fromLane="0" toLane="0" dir="s" state="M"/>
    <connection from=":25_5" to="2047" fromLane="0" toLane="0" dir="s" state="M"/>
    <connection from=":25_6" to="1753" fromLane="0" toLane="0" dir="l" state="M"/>
    <connection from=":25_7" to="2478" fromLane="0" toLane="0" dir="r" state="M"/>
    <connection from=":25_8" to="3810" fromLane="0" toLane="0" dir="s" state="M"/>
    <connection from=":25_9" to="2047" fromLane="0" toLane="0" dir="l" state="M"/>
    <connection from=":27_0" to="2049" fromLane="0" toLane="0" dir="s" state="M"/>
    <connection from=":27_0" to="2049" fromLane="1" toLane="1" dir="s" state="M"/>
    <connection from=":28_0" to="1755" fromLane="0" toLane="0" dir="s" state="M"/>
    <connection from=":28_0" to="1755" fromLane="1" toLane="1" dir="s" state="M"/>
    <connection from=":5_0" to="3554" fromLane="0" toLane="0" dir="s" state="M"/>
    <connection from=":6_0" to="2551" fromLane="0" toLane="0" dir="s" state="M"/>

</net>