<routes>
	<vehicle depart="0.1" departLane="0" departPos="5.854559003506902" departSpeed="8.3239663" id="329" type="bicycle">
		<route edges=":25_7 2478"/>
	</vehicle>
	<vehicle depart="0.1" departLane="0" departPos="17.43339906953955" departSpeed="15.973551" id="344" type="bus">
		<route edges=":25_7 2478"/>
	</vehicle>
	<vehicle depart="0.1" departLane="1" departPos="2.5" departSpeed="0.6991141" id="317" type="passenger">
		<route edges="1755 2047"/>
	</vehicle>
	<vehicle depart="0.1" departLane="0" departPos="8.250068859617423" departSpeed="1.3163734" id="318" type="passenger">
		<route edges=":25_9 2047"/>
	</vehicle>
	<vehicle depart="0.1" departLane="0" departPos="49.02148719174508" departSpeed="11.494001" id="343" type="passenger">
		<route edges=":25_4 1753 3808 1701"/>
	</vehicle>
	<vehicle depart="0.1" departLane="0" departPos="29.614811372721718" departSpeed="12.011985" id="347" type="passenger">
		<route edges=":28_0 1755 3810"/>
	</vehicle>
	<vehicle depart="0.1" departLane="0" departPos="32.42112661505856" departSpeed="10.686064" id="348" type="passenger">
		<route edges=":25_3 2047 3554 2551"/>
	</vehicle>
	<vehicle depart="0.1" departLane="0" departPos="29.739504218640658" departSpeed="6.0319979" id="351" type="passenger">
		<route edges=":25_4 1753"/>
	</vehicle>
	<vehicle depart="0.1" departLane="0" departPos="2.5" departSpeed="1.9706187" id="354" type="passenger">
		<route edges="1781 1753"/>
	</vehicle>
	<vehicle depart="0.1" departLane="0" departPos="24.55529735321791" departSpeed="0.0" id="30" type="truck">
		<route edges="2049 2478"/>
	</vehicle>
</routes>
