<routes>
	<vehicle depart="0.1" departLane="0" departPos="70.34942757892934" departSpeed="0.0" id="326" type="passenger">
		<route edges="134 1588"/>
	</vehicle>
	<vehicle depart="0.1" departLane="0" departPos="63.27090566174867" departSpeed="0.0" id="329" type="passenger">
		<route edges="134 1588"/>
	</vehicle>
	<vehicle depart="0.1" departLane="0" departPos="9.709684360348808" departSpeed="10.317711" id="384" type="passenger">
		<route edges="1592 957"/>
	</vehicle>
	<vehicle depart="0.1" departLane="0" departPos="16.57507968176774" departSpeed="8.6355281" id="391" type="passenger">
		<route edges=":86_1 1592 957"/>
	</vehicle>
	<vehicle depart="0.1" departLane="0" departPos="55.544482920827846" departSpeed="0.73772256" id="398" type="passenger">
		<route edges="1589 1592"/>
	</vehicle>
	<vehicle depart="0.1" departLane="0" departPos="25.510058891564544" departSpeed="5.5925304" id="3108" type="passenger">
		<route edges="1589 1592"/>
	</vehicle>
	<vehicle depart="0.1" departLane="0" departPos="8.272590098409594" departSpeed="5.4989246" id="3114" type="passenger">
		<route edges="1589 1592"/>
	</vehicle>
	<vehicle depart="0.1" departLane="0" departPos="55.77043518346443" departSpeed="9.6226819e-05" id="335" type="motorcycle">
		<route edges="134 1588"/>
	</vehicle>
	<vehicle depart="0.1" departLane="0" departPos="40.69540697095521" departSpeed="5.9979091" id="3101" type="truck">
		<route edges="1589 1592"/>
	</vehicle>
</routes>
