<!-- generated on 2020-12-18 17:01:51.875862 by ipykernel_launcher.py v1_2_0+5214-53edc58fcd
-->
<tlLogics/>
