<?xml version="1.0" encoding="UTF-8"?>

<!-- generated on Fri Dec 18 17:01:51 2020 by Eclipse SUMO netconvert Version 1.8.0
<configuration xmlns:xsi="http://www.w3.org/2001/XMLSchema-instance" xsi:noNamespaceSchemaLocation="http://sumo.dlr.de/xsd/netconvertConfiguration.xsd">

    <input>
        <node-files value="./converted_scenarios/SUMO/CHN_Cho-2_4_I-1-1/nodes.net.xml"/>
        <edge-files value="./converted_scenarios/SUMO/CHN_Cho-2_4_I-1-1/edges.net.xml"/>
        <connection-files value="./converted_scenarios/SUMO/CHN_Cho-2_4_I-1-1/_connections.net.xml"/>
        <tllogic-files value="./converted_scenarios/SUMO/CHN_Cho-2_4_I-1-1/_tll.net.xml"/>
    </input>

    <output>
        <output-file value="./converted_scenarios/SUMO/CHN_Cho-2_4_I-1-1/CHN_Cho-2_4_I-1-1.net.xml"/>
    </output>

    <processing>
        <plain.extend-edge-shape value="true"/>
        <geometry.remove.keep-edges.explicit value="true"/>
        <geometry.avoid-overlap value="true"/>
        <offset.disable-normalization value="true"/>
    </processing>

    <junctions>
        <no-turnarounds value="true"/>
        <junctions.internal-link-detail value="20"/>
    </junctions>

    <report>
        <aggregate-warnings value="5"/>
    </report>

    <random_number>
        <seed value="1234"/>
    </random_number>

</configuration>
-->

<net version="1.6" junctionCornerDetail="5" junctionLinkDetail="20" limitTurnSpeed="5.50" xmlns:xsi="http://www.w3.org/2001/XMLSchema-instance" xsi:noNamespaceSchemaLocation="http://sumo.dlr.de/xsd/net_file.xsd">

    <location netOffset="0.00,0.00" convBoundary="-149.69,163.69,170.08,467.54" origBoundary="-151.21,162.83,170.68,467.54" projParameter="!"/>

    <edge id=":10_0" function="internal">
        <lane id=":10_0_0" index="0" disallow="rail_fast" speed="36.11" length="0.29" width="3.50" shape="-17.00,302.11 -17.22,301.92"/>
    </edge>
    <edge id=":11_0" function="internal">
        <lane id=":11_0_0" index="0" disallow="rail_fast" speed="36.11" length="36.75" width="3.50" shape="-73.87,255.18 -101.99,231.51"/>
    </edge>
    <edge id=":11_1" function="internal">
        <lane id=":11_1_0" index="0" disallow="rail_fast" speed="36.11" length="36.97" width="3.50" shape="-71.20,251.94 -72.63,251.15 -74.15,250.30 -75.75,249.40 -77.41,248.44 -79.12,247.44 -80.87,246.39 -82.65,245.31 -84.45,244.20 -86.25,243.07 -88.04,241.91 -89.82,240.74 -91.56,239.56 -93.27,238.38 -94.92,237.20 -96.51,236.03 -98.03,234.87 -99.45,233.72 -100.78,232.60 -101.99,231.51"/>
        <lane id=":11_1_1" index="1" disallow="rail_fast" speed="36.11" length="36.97" width="3.50" shape="-68.89,249.21 -70.33,248.43 -71.85,247.58 -73.44,246.68 -75.10,245.73 -76.81,244.74 -78.56,243.70 -80.33,242.63 -82.12,241.53 -83.92,240.40 -85.71,239.26 -87.48,238.10 -89.23,236.93 -90.93,235.76 -92.58,234.59 -94.17,233.42 -95.68,232.27 -97.10,231.13 -98.43,230.01 -99.64,228.92"/>
    </edge>
    <edge id=":2_0" function="internal">
        <lane id=":2_0_0" index="0" disallow="rail_fast" speed="36.11" length="0.28" width="3.50" shape="111.44,417.91 111.24,417.71"/>
    </edge>
    <edge id=":3_0" function="internal">
        <lane id=":3_0_0" index="0" disallow="bus truck rail_fast" speed="36.11" length="1.87" width="3.50" shape="-41.20,267.73 -42.45,267.02"/>
        <lane id=":3_0_1" index="1" disallow="rail_fast" speed="36.11" length="1.87" width="3.50" shape="-39.53,264.65 -41.55,263.55"/>
    </edge>
    <edge id=":4_0" function="internal">
        <lane id=":4_0_0" index="0" disallow="bus truck rail_fast" speed="36.11" length="1.17" width="3.50" shape="-42.63,266.93 -44.01,266.22"/>
        <lane id=":4_0_1" index="1" disallow="rail_fast" speed="36.11" length="1.17" width="3.50" shape="-41.72,263.46 -42.42,263.10"/>
    </edge>
    <edge id=":5_0" function="internal">
        <lane id=":5_0_0" index="0" disallow="rail_fast" speed="36.11" length="3.00" width="3.50" shape="-33.96,287.41 -36.25,285.48"/>
    </edge>
    <edge id=":6_0" function="internal">
        <lane id=":6_0_0" index="0" disallow="rail_fast" speed="36.11" length="2.99" width="3.50" shape="-41.83,280.79 -44.13,278.88"/>
    </edge>
    <edge id=":8_0" function="internal">
        <lane id=":8_0_0" index="0" disallow="rail_fast" speed="36.11" length="3.02" width="3.50" shape="-24.32,278.99 -26.76,277.24"/>
        <lane id=":8_0_1" index="1" disallow="rail_fast" speed="36.11" length="3.02" width="3.50" shape="-22.27,276.16 -24.73,274.39"/>
    </edge>
    <edge id=":9_0" function="internal">
        <lane id=":9_0_0" index="0" disallow="rail_fast" speed="36.11" length="3.00" width="3.50" shape="95.37,402.27 93.14,400.27"/>
    </edge>

    <edge id="53" from="1" to="2" priority="1" spreadType="center" length="68.70">
        <lane id="53_0" index="0" disallow="rail_fast" speed="36.11" length="68.70" width="3.50" customShape="1" shape="158.74,467.54 135.04,442.68 111.44,417.91"/>
    </edge>
    <edge id="55" from="3" to="4" priority="1" spreadType="center" length="0.21">
        <lane id="55_0" index="0" disallow="bus truck rail_fast" speed="36.11" length="0.21" width="3.50" customShape="1" shape="-42.45,267.02 -42.63,266.93"/>
        <lane id="55_1" index="1" disallow="rail_fast" speed="36.11" length="0.21" width="3.50" customShape="1" shape="-41.55,263.55 -41.72,263.46"/>
    </edge>
    <edge id="56" from="5" to="6" priority="1" spreadType="center" length="10.28">
        <lane id="56_0" index="0" disallow="rail_fast" speed="36.11" length="10.28" width="3.50" customShape="1" shape="-36.25,285.48 -39.04,283.13 -41.83,280.79"/>
    </edge>
    <edge id="58" from="7" to="8" priority="1" spreadType="center" length="240.31">
        <lane id="58_0" index="0" disallow="rail_fast" speed="36.11" length="240.31" width="3.50" customShape="1" shape="169.49,416.35 156.70,411.80 142.89,406.92 134.87,403.74 127.47,400.40 120.22,396.71 113.60,392.92 107.19,388.80 99.75,383.52 92.15,377.63 82.87,369.88 63.09,352.79 49.02,340.58 17.16,312.17 4.22,301.07 -6.64,292.21 -16.61,284.62 -24.32,278.99"/>
        <lane id="58_1" index="1" disallow="rail_fast" speed="36.11" length="240.31" width="3.50" customShape="1" shape="170.68,413.06 157.92,408.52 144.20,403.67 136.27,400.53 128.96,397.23 121.80,393.59 115.28,389.85 108.95,385.77 101.60,380.53 94.07,374.68 84.83,366.96 65.10,349.90 51.08,337.73 19.25,309.34 6.30,298.25 -4.59,289.37 -14.57,281.78 -22.27,276.16"/>
    </edge>
    <edge id="59" from="9" to="10" priority="1" spreadType="center" length="149.18">
        <lane id="59_0" index="0" disallow="rail_fast" speed="36.11" length="149.18" width="3.50" customShape="1" shape="93.14,400.27 38.57,351.64 -17.00,302.11"/>
    </edge>
    <edge id="61" from="11" to="12" priority="1" spreadType="center" length="86.47">
        <lane id="61_0" index="0" disallow="rail_fast" speed="36.11" length="86.47" width="3.50" customShape="1" shape="-101.99,231.51 -106.47,227.35 -111.82,221.90 -118.21,214.71 -124.01,207.66 -129.81,199.98 -135.60,191.65 -139.66,185.19 -144.87,175.99 -151.22,164.54"/>
        <lane id="61_1" index="1" disallow="rail_fast" speed="36.11" length="86.47" width="3.50" customShape="1" shape="-99.64,228.92 -104.01,224.87 -109.26,219.52 -115.57,212.42 -121.28,205.47 -127.00,197.89 -132.71,189.68 -136.69,183.33 -141.86,174.19 -148.16,162.83"/>
    </edge>
    <edge id="62" from="10" to="5" priority="1" spreadType="center" length="23.80">
        <lane id="62_0" index="0" disallow="rail_fast" speed="36.11" length="23.80" width="3.50" customShape="1" shape="-17.22,301.92 -30.47,290.37 -33.96,287.41"/>
    </edge>
    <edge id="65" from="2" to="9" priority="1" spreadType="center" length="23.78">
        <lane id="65_0" index="0" disallow="rail_fast" speed="36.11" length="23.78" width="3.50" customShape="1" shape="111.24,417.71 103.88,410.25 96.14,402.96 95.37,402.27"/>
    </edge>
    <edge id="66" from="8" to="3" priority="1" spreadType="center" length="20.28">
        <lane id="66_0" index="0" disallow="rail_fast" speed="36.11" length="20.28" width="3.50" customShape="1" shape="-26.76,277.24 -33.41,272.57 -38.75,269.11 -41.20,267.73"/>
        <lane id="66_1" index="1" disallow="rail_fast" speed="36.11" length="20.28" width="3.50" customShape="1" shape="-24.73,274.39 -31.54,269.61 -37.05,266.05 -39.53,264.65"/>
    </edge>
    <edge id="67" from="6" to="11" priority="1" spreadType="center" length="72.22">
        <lane id="67_0" index="0" disallow="rail_fast" speed="36.11" length="72.22" width="3.50" customShape="1" shape="-44.13,278.88 -54.33,270.56 -73.87,255.18"/>
    </edge>
    <edge id="68" from="4" to="11" priority="1" spreadType="center" length="64.31">
        <lane id="68_0" index="0" disallow="rail_fast" speed="36.11" length="64.31" width="3.50" customShape="1" shape="-44.01,266.22 -60.99,257.47 -71.20,251.94"/>
        <lane id="68_1" index="1" disallow="rail_fast" speed="36.11" length="64.31" width="3.50" customShape="1" shape="-42.42,263.10 -59.24,254.44 -68.89,249.21"/>
    </edge>

    <junction id="1" type="dead_end" x="158.74" y="467.54" incLanes="" intLanes="" shape="160.00,466.33 157.47,468.75"/>
    <junction id="10" type="priority" x="-17.11" y="302.01" incLanes="59_0" intLanes=":10_0_0" shape="-18.17,303.42 -15.84,300.80 -16.07,300.60 -18.37,303.23">
        <request index="0" response="0" foes="0" cont="0"/>
    </junction>
    <junction id="11" type="priority" x="-97.84" y="232.98" incLanes="67_0 68_0 68_1" intLanes=":11_0_0 :11_1_0 :11_1_1" shape="-75.03,256.49 -72.72,253.86 -72.35,253.30 -67.74,247.85 -74.70,244.18 -79.90,241.49 -84.12,239.15 -88.11,236.49 -92.64,232.86 -98.47,227.63 -103.17,232.81">
        <request index="0" response="110" foes="110" cont="0"/>
        <request index="1" response="000" foes="001" cont="0"/>
        <request index="2" response="000" foes="001" cont="0"/>
    </junction>
    <junction id="12" type="dead_end" x="-149.69" y="163.69" incLanes="61_0 61_1" intLanes="" shape="-152.75,165.39 -146.63,161.99"/>
    <junction id="2" type="priority" x="111.34" y="417.81" incLanes="53_0" intLanes=":2_0_0" shape="110.18,419.12 112.71,416.71 112.49,416.48 110.00,418.94">
        <request index="0" response="0" foes="0" cont="0"/>
    </junction>
    <junction id="3" type="priority" x="-41.67" y="265.45" incLanes="66_0 66_1" intLanes=":3_0_0 :3_0_1" shape="-42.03,269.26 -38.70,263.11 -41.39,261.67 -44.57,267.92">
        <request index="0" response="00" foes="00" cont="0"/>
        <request index="1" response="00" foes="00" cont="0"/>
    </junction>
    <junction id="4" type="priority" x="-41.88" y="265.35" incLanes="55_0 55_1" intLanes=":4_0_0 :4_0_1" shape="-42.10,269.15 -38.95,262.90 -41.63,261.54 -44.81,267.77">
        <request index="0" response="00" foes="00" cont="0"/>
        <request index="1" response="00" foes="00" cont="0"/>
    </junction>
    <junction id="5" type="priority" x="-35.10" y="286.44" incLanes="62_0" intLanes=":5_0_0" shape="-35.09,288.74 -32.83,286.07 -35.13,284.14 -37.38,286.82">
        <request index="0" response="0" foes="0" cont="0"/>
    </junction>
    <junction id="6" type="priority" x="-42.97" y="279.83" incLanes="56_0" intLanes=":6_0_0" shape="-42.96,282.13 -40.70,279.45 -43.03,277.53 -45.24,280.24">
        <request index="0" response="0" foes="0" cont="0"/>
    </junction>
    <junction id="7" type="dead_end" x="170.08" y="414.71" incLanes="" intLanes="" shape="171.26,411.41 168.91,418.00"/>
    <junction id="8" type="priority" x="-24.51" y="276.69" incLanes="58_0 58_1" intLanes=":8_0_0 :8_0_1" shape="-25.35,280.41 -21.24,274.74 -23.72,272.97 -27.78,278.67">
        <request index="0" response="00" foes="00" cont="0"/>
        <request index="1" response="00" foes="00" cont="0"/>
    </junction>
    <junction id="9" type="priority" x="94.26" y="401.27" incLanes="65_0" intLanes=":9_0_0" shape="94.20,403.57 96.54,400.97 94.30,398.97 91.98,401.58">
        <request index="0" response="0" foes="0" cont="0"/>
    </junction>

    <connection from="53" to="65" fromLane="0" toLane="0" contPos="-4.00" via=":2_0_0" dir="s" state="M"/>
    <connection from="55" to="68" fromLane="0" toLane="0" contPos="-4.00" via=":4_0_0" dir="s" state="M"/>
    <connection from="55" to="68" fromLane="1" toLane="1" contPos="-4.00" via=":4_0_1" dir="s" state="M"/>
    <connection from="56" to="67" fromLane="0" toLane="0" contPos="-4.00" via=":6_0_0" dir="s" state="M"/>
    <connection from="58" to="66" fromLane="0" toLane="0" contPos="-4.00" via=":8_0_0" dir="s" state="M"/>
    <connection from="58" to="66" fromLane="1" toLane="1" contPos="-4.00" via=":8_0_1" dir="s" state="M"/>
    <connection from="59" to="62" fromLane="0" toLane="0" contPos="-4.00" via=":10_0_0" dir="s" state="M"/>
    <connection from="62" to="56" fromLane="0" toLane="0" contPos="-4.00" via=":5_0_0" dir="s" state="M"/>
    <connection from="65" to="59" fromLane="0" toLane="0" contPos="-4.00" via=":9_0_0" dir="s" state="M"/>
    <connection from="66" to="55" fromLane="0" toLane="0" contPos="-4.00" via=":3_0_0" dir="s" state="M"/>
    <connection from="66" to="55" fromLane="1" toLane="1" contPos="-4.00" via=":3_0_1" dir="s" state="M"/>
    <connection from="67" to="61" fromLane="0" toLane="0" contPos="-4.00" via=":11_0_0" dir="s" state="m"/>
    <connection from="68" to="61" fromLane="0" toLane="0" contPos="-4.00" via=":11_1_0" dir="s" state="M"/>
    <connection from="68" to="61" fromLane="1" toLane="1" contPos="-4.00" via=":11_1_1" dir="s" state="M"/>

    <connection from=":10_0" to="62" fromLane="0" toLane="0" dir="s" state="M"/>
    <connection from=":11_0" to="61" fromLane="0" toLane="0" dir="s" state="M"/>
    <connection from=":11_1" to="61" fromLane="0" toLane="0" dir="s" state="M"/>
    <connection from=":11_1" to="61" fromLane="1" toLane="1" dir="s" state="M"/>
    <connection from=":2_0" to="65" fromLane="0" toLane="0" dir="s" state="M"/>
    <connection from=":3_0" to="55" fromLane="0" toLane="0" dir="s" state="M"/>
    <connection from=":3_0" to="55" fromLane="1" toLane="1" dir="s" state="M"/>
    <connection from=":4_0" to="68" fromLane="0" toLane="0" dir="s" state="M"/>
    <connection from=":4_0" to="68" fromLane="1" toLane="1" dir="s" state="M"/>
    <connection from=":5_0" to="56" fromLane="0" toLane="0" dir="s" state="M"/>
    <connection from=":6_0" to="67" fromLane="0" toLane="0" dir="s" state="M"/>
    <connection from=":8_0" to="66" fromLane="0" toLane="0" dir="s" state="M"/>
    <connection from=":8_0" to="66" fromLane="1" toLane="1" dir="s" state="M"/>
    <connection from=":9_0" to="59" fromLane="0" toLane="0" dir="s" state="M"/>

</net>
