<routes>
	<vehicle depart="0.1" departLane="0" departPos="0" departSpeed="22.7306" id="310" type="passenger">
		<route edges="67 61"/>
	</vehicle>
	<vehicle depart="0.1" departLane="0" departPos="14.892471534811147" departSpeed="26.0458" id="314" type="passenger">
		<route edges="62 56 67 61"/>
	</vehicle>
	<vehicle depart="0.1" departLane="0" departPos="55.08884356948908" departSpeed="22.823" id="316" type="passenger">
		<route edges="68 61"/>
	</vehicle>
	<vehicle depart="0.1" departLane="0" departPos="122.60284207158963" departSpeed="27.4518" id="317" type="passenger">
		<route edges="59 62 56 67 61"/>
	</vehicle>
	<vehicle depart="0.1" departLane="1" departPos="211.52678990891127" departSpeed="24.0166" id="319" type="passenger">
		<route edges="58 66 55 68 61"/>
	</vehicle>
	<vehicle depart="0.1" departLane="0" departPos="0" departSpeed="25.6219" id="321" type="passenger">
		<route edges="59 62 56 67 61"/>
	</vehicle>
	<vehicle depart="0.1" departLane="0" departPos="192.02903961951404" departSpeed="22.3174" id="322" type="passenger">
		<route edges="58 66 68 61"/>
	</vehicle>
	<vehicle depart="0.1" departLane="0" departPos="165.93135405158435" departSpeed="21.7619" id="323" type="passenger">
		<route edges="58 66 55 68 61"/>
	</vehicle>
	<vehicle depart="0.1" departLane="1" departPos="182.55772537316892" departSpeed="23.501" id="325" type="passenger">
		<route edges="58 66 68 61"/>
	</vehicle>
	<vehicle depart="0.1" departLane="0" departPos="128.67275461765604" departSpeed="22.6132" id="326" type="passenger">
		<route edges="58 66 68 61"/>
	</vehicle>
	<vehicle depart="0.1" departLane="0" departPos="0" departSpeed="19.2433" id="327" type="passenger">
		<route edges="59 62 56 67 61"/>
	</vehicle>
	<vehicle depart="0.1" departLane="1" departPos="155.60123016815527" departSpeed="22.8624" id="328" type="passenger">
		<route edges="58 66 68 61"/>
	</vehicle>
	<vehicle depart="0.1" departLane="0" departPos="101.90042711432201" departSpeed="20.9013" id="329" type="passenger">
		<route edges="58 58 66 68 61"/>
	</vehicle>
	<vehicle depart="0.1" departLane="0" departPos="68.69710141592581" departSpeed="15.4618" id="330" type="passenger">
		<route edges="53 65 59 62 56 67 61"/>
	</vehicle>
	<vehicle depart="0.1" departLane="0" departPos="71.14187280280724" departSpeed="17.1533" id="331" type="passenger">
		<route edges="58 66 68 68 61"/>
	</vehicle>
	<vehicle depart="0.1" departLane="0" departPos="0" departSpeed="12.8561" id="332" type="passenger">
		<route edges="53 65 59 62 56 67 61"/>
	</vehicle>
	<vehicle depart="0.1" departLane="0" departPos="0" departSpeed="9.219" id="333" type="passenger">
		<route edges="53 65 59 62 56 67 61"/>
	</vehicle>
	<vehicle depart="0.1" departLane="0" departPos="0" departSpeed="2.9938" id="335" type="passenger">
		<route edges="53 65 59 62 56 67 61"/>
	</vehicle>
</routes>
