<routes>
	<vehicle depart="0.1" departLane="0" departPos="41.94921115885955" departSpeed="0.041903391" id="340" type="bicycle">
		<route edges="14025 14545"/>
	</vehicle>
	<vehicle depart="0.1" departLane="0" departPos="59.58771184317542" departSpeed="0.13484612" id="32" type="passenger">
		<route edges="14025 14545"/>
	</vehicle>
	<vehicle depart="0.1" departLane="0" departPos="47.937174287447554" departSpeed="0.52948506" id="36" type="passenger">
		<route edges="14025 14545"/>
	</vehicle>
	<vehicle depart="0.1" departLane="0" departPos="2.5" departSpeed="6.0958924" id="313" type="passenger">
		<route edges=":72_1 14378"/>
	</vehicle>
	<vehicle depart="0.1" departLane="0" departPos="69.05221978324245" departSpeed="0.0" id="333" type="passenger">
		<route edges="14379 14445"/>
	</vehicle>
	<vehicle depart="0.1" departLane="0" departPos="61.551370936718996" departSpeed="0.0" id="338" type="passenger">
		<route edges="14379 14445"/>
	</vehicle>
	<vehicle depart="0.1" departLane="0" departPos="54.04634764184689" departSpeed="0.0" id="345" type="passenger">
		<route edges="14379 14445"/>
	</vehicle>
	<vehicle depart="0.1" departLane="0" departPos="46.557286206225356" departSpeed="4.3978062e-05" id="350" type="passenger">
		<route edges="14379 14445"/>
	</vehicle>
	<vehicle depart="0.1" departLane="0" departPos="6.639024669170408" departSpeed="7.0722831" id="319" type="motorcycle">
		<route edges=":69_1 14448"/>
	</vehicle>
</routes>
