<!-- generated on Tue Feb  9 22:06:53 2021 by Eclipse SUMO netconvert Version 1.8.0
<configuration xmlns:xsi="http://www.w3.org/2001/XMLSchema-instance" xsi:noNamespaceSchemaLocation="http://sumo.dlr.de/xsd/netconvertConfiguration.xsd">

    <input>
        <node-files value="./converted_scenarios/scenario-factory/ESP_Almansa-1_1_I-1-1/ESP_Almansa-1_1_I-1-1.nod.xml"/>
        <edge-files value="./converted_scenarios/scenario-factory/ESP_Almansa-1_1_I-1-1/ESP_Almansa-1_1_I-1-1.edg.xml"/>
        <connection-files value="./converted_scenarios/scenario-factory/ESP_Almansa-1_1_I-1-1/ESP_Almansa-1_1_I-1-1.con.xml"/>
        <tllogic-files value="./converted_scenarios/scenario-factory/ESP_Almansa-1_1_I-1-1/ESP_Almansa-1_1_I-1-1.tll.xml"/>
        <type-files value="/home/zen/commonroad-interactive-benchmarks/install/commonroad-map-tool/crmapconverter/sumo_map/templates/DEU.typ.xml"/>
    </input>

    <output>
        <output-file value="./converted_scenarios/scenario-factory/ESP_Almansa-1_1_I-1-1/ESP_Almansa-1_1_I-1-1.net.xml"/>
    </output>

    <processing>
        <geometry.remove.keep-edges.explicit value="true"/>
        <geometry.avoid-overlap value="true"/>
        <offset.disable-normalization value="true"/>
    </processing>

    <junctions>
        <no-turnarounds value="true"/>
        <junctions.internal-link-detail value="20"/>
    </junctions>

    <report>
        <aggregate-warnings value="5"/>
    </report>

    <random_number>
        <seed value="1234"/>
    </random_number>

</configuration>
--><net xmlns:xsi="http://www.w3.org/2001/XMLSchema-instance" version="1.6" junctionCornerDetail="5" junctionLinkDetail="20" limitTurnSpeed="5.50" xsi:noNamespaceSchemaLocation="http://sumo.dlr.de/xsd/net_file.xsd">

    <location netOffset="0.00,0.00" convBoundary="-1011.12,-630.81,-685.78,-406.32" origBoundary="-1011.12,-630.81,-685.78,-406.32" projParameter="!"/>

    <type id="highway.bridleway" priority="1" speed="2.78" allow="pedestrian" oneway="1" width="2.00"/>
    <type id="highway.bus_guideway" priority="1" speed="27.78" allow="bus" oneway="1"/>
    <type id="highway.cycleway" priority="1" speed="8.33" allow="bicycle" oneway="0" width="1.00"/>
    <type id="highway.footway" priority="1" speed="2.78" allow="pedestrian" oneway="1" width="2.00"/>
    <type id="highway.ford" priority="1" speed="2.78" allow="army" oneway="0"/>
    <type id="highway.living_street" priority="2" speed="2.78" disallow="tram rail_urban rail rail_electric rail_fast ship" oneway="0"/>
    <type id="highway.motorway" priority="14" speed="39.44" allow="private emergency authority army vip passenger hov taxi bus coach delivery truck trailer motorcycle evehicle custom1 custom2" oneway="1"/>
    <type id="highway.motorway_link" priority="9" speed="22.22" allow="private emergency authority army vip passenger hov taxi bus coach delivery truck trailer motorcycle evehicle custom1 custom2" oneway="1"/>
    <type id="highway.path" priority="1" speed="2.78" allow="pedestrian bicycle" oneway="0" width="2.00"/>
    <type id="highway.pedestrian" priority="1" speed="2.78" allow="pedestrian" oneway="1" width="2.00"/>
    <type id="highway.primary" priority="12" speed="27.78" disallow="pedestrian tram rail_urban rail rail_electric rail_fast ship" oneway="0"/>
    <type id="highway.primary_link" priority="7" speed="22.22" disallow="pedestrian tram rail_urban rail rail_electric rail_fast ship" oneway="0"/>
    <type id="highway.raceway" priority="15" speed="83.33" allow="vip" oneway="0"/>
    <type id="highway.residential" priority="3" speed="13.89" disallow="pedestrian tram rail_urban rail rail_electric rail_fast ship" oneway="0"/>
    <type id="highway.secondary" priority="11" speed="27.78" disallow="pedestrian tram rail_urban rail rail_electric rail_fast ship" oneway="0"/>
    <type id="highway.secondary_link" priority="6" speed="22.22" disallow="pedestrian tram rail_urban rail rail_electric rail_fast ship" oneway="0"/>
    <type id="highway.service" priority="1" speed="5.56" allow="pedestrian delivery bicycle" oneway="0"/>
    <type id="highway.stairs" priority="1" speed="1.39" allow="pedestrian" oneway="1" width="2.00"/>
    <type id="highway.step" priority="1" speed="1.39" allow="pedestrian" oneway="1" width="2.00"/>
    <type id="highway.steps" priority="1" speed="1.39" allow="pedestrian" oneway="1" width="2.00"/>
    <type id="highway.tertiary" priority="10" speed="22.22" disallow="pedestrian tram rail_urban rail rail_electric rail_fast ship" oneway="0"/>
    <type id="highway.tertiary_link" priority="5" speed="22.22" disallow="pedestrian tram rail_urban rail rail_electric rail_fast ship" oneway="0"/>
    <type id="highway.track" priority="1" speed="5.56" allow="pedestrian motorcycle moped bicycle" oneway="0"/>
    <type id="highway.trunk" priority="13" speed="27.78" disallow="pedestrian bicycle tram rail_urban rail rail_electric rail_fast ship" oneway="0"/>
    <type id="highway.trunk_link" priority="8" speed="22.22" disallow="pedestrian bicycle tram rail_urban rail rail_electric rail_fast ship" oneway="0"/>
    <type id="highway.unclassified" priority="4" speed="13.89" disallow="pedestrian tram rail_urban rail rail_electric rail_fast ship" oneway="0"/>
    <type id="highway.unsurfaced" priority="1" speed="8.33" disallow="tram rail_urban rail rail_electric rail_fast ship" oneway="0"/>
    <type id="railway.highspeed" priority="21" speed="69.44" allow="rail_fast" oneway="1"/>
    <type id="railway.light_rail" priority="19" speed="27.78" allow="rail_urban" oneway="1"/>
    <type id="railway.preserved" priority="16" speed="27.78" allow="rail" oneway="1"/>
    <type id="railway.rail" priority="20" speed="44.44" allow="rail" oneway="1"/>
    <type id="railway.subway" priority="18" speed="27.78" allow="rail_urban" oneway="1"/>
    <type id="railway.tram" priority="17" speed="13.89" allow="tram" oneway="1"/>

    <edge id=":23_0" function="internal">
        <lane id=":23_0_0" index="0" disallow="pedestrian tram rail_urban rail rail_electric rail_fast ship" speed="36.11" length="0.76" width="3.50" shape="-876.72,-450.24 -876.15,-450.74"/>
    </edge>
    <edge id=":54_0" function="internal">
        <lane id=":54_0_0" index="0" disallow="pedestrian tram rail_urban rail rail_electric rail_fast ship" speed="36.11" length="39.30" width="3.50" shape="-923.40,-504.38 -939.37,-515.83 -955.34,-527.27"/>
    </edge>
    <edge id=":54_1" function="internal">
        <lane id=":54_1_0" index="0" disallow="pedestrian tram rail_urban rail rail_electric rail_fast ship" speed="11.71" length="36.43" width="3.50" shape="-923.40,-504.38 -925.52,-506.02 -927.54,-507.83 -929.41,-509.85 -931.04,-512.08 -931.76,-513.35 -932.36,-514.66 -932.84,-516.04 -933.17,-517.47 -933.34,-518.94 -933.34,-520.42 -933.17,-521.89 -932.85,-523.31 -932.41,-524.68 -931.85,-526.00 -931.19,-527.27 -929.69,-529.56 -927.96,-531.69 -925.14,-534.54"/>
    </edge>
    <edge id=":54_2" function="internal">
        <lane id=":54_2_0" index="0" disallow="pedestrian tram rail_urban rail rail_electric rail_fast ship" speed="10.68" length="30.04" width="3.50" shape="-922.77,-531.96 -925.21,-529.50 -926.67,-527.71 -927.93,-525.77 -928.46,-524.75 -928.92,-523.69 -929.27,-522.59 -929.53,-521.46 -929.66,-520.31 -929.66,-519.16 -929.52,-518.01 -929.26,-516.88 -928.89,-515.79 -928.41,-514.74 -927.83,-513.73 -926.48,-511.87 -924.90,-510.17 -923.18,-508.63 -921.35,-507.22"/>
    </edge>
    <edge id=":54_3" function="internal">
        <lane id=":54_3_0" index="0" disallow="pedestrian tram rail_urban rail rail_electric rail_fast ship" speed="13.64" length="36.10" width="3.50" shape="-922.77,-531.96 -925.61,-529.54 -928.64,-527.35 -931.86,-525.47 -934.13,-524.43 -936.48,-523.62 -938.91,-523.05 -941.38,-522.78 -943.87,-522.82 -946.33,-523.18 -948.73,-523.83 -951.04,-524.76 -953.25,-525.92 -955.34,-527.27"/>
    </edge>
    <edge id=":54_4" function="internal">
        <lane id=":54_4_0" index="0" disallow="pedestrian tram rail_urban rail rail_electric rail_fast ship" speed="12.73" length="31.33" width="3.50" shape="-953.33,-530.14 -951.50,-528.95 -949.59,-527.95 -947.61,-527.17 -945.57,-526.63 -943.49,-526.34 -941.38,-526.33 -939.29,-526.59 -937.22,-527.09 -935.19,-527.81 -933.23,-528.72 -930.38,-530.40 -927.68,-532.37 -925.14,-534.54"/>
    </edge>
    <edge id=":54_5" function="internal">
        <lane id=":54_5_0" index="0" disallow="pedestrian tram rail_urban rail rail_electric rail_fast ship" speed="36.11" length="39.35" width="3.50" shape="-953.33,-530.14 -937.33,-518.67 -921.35,-507.22"/>
    </edge>
    <edge id=":55_0" function="internal">
        <lane id=":55_0_0" index="0" disallow="pedestrian tram rail_urban rail rail_electric rail_fast ship" speed="36.11" length="2.39" width="3.50" shape="-847.92,-470.52 -849.74,-468.97"/>
    </edge>
    <edge id=":55_1" function="internal">
        <lane id=":55_1_0" index="0" disallow="pedestrian tram rail_urban rail rail_electric rail_fast ship" speed="12.50" length="30.91" width="3.50" shape="-847.91,-470.53 -849.79,-469.03 -852.75,-467.03 -854.91,-465.87 -857.18,-464.91 -859.58,-464.22 -862.07,-463.85 -864.60,-463.84 -867.11,-464.20 -869.53,-464.93 -871.80,-465.96 -873.91,-467.24 -875.87,-468.71"/>
    </edge>
    <edge id=":55_2" function="internal">
        <lane id=":55_2_0" index="0" disallow="pedestrian tram rail_urban rail rail_electric rail_fast ship" speed="11.46" length="26.03" width="3.50" shape="-873.67,-471.43 -871.98,-470.16 -870.20,-469.09 -868.30,-468.24 -866.31,-467.65 -864.25,-467.37 -862.17,-467.40 -860.11,-467.73 -858.12,-468.33 -856.21,-469.15 -854.38,-470.14 -851.80,-471.89 -850.18,-473.20"/>
    </edge>
    <edge id=":55_3" function="internal">
        <lane id=":55_3_0" index="0" disallow="pedestrian tram rail_urban rail rail_electric rail_fast ship" speed="13.59" length="22.84" width="3.50" shape="-873.65,-471.41 -873.43,-471.17 -873.24,-470.83 -873.07,-470.38 -872.92,-469.82 -872.79,-469.16 -872.68,-468.40 -872.59,-467.52 -872.52,-466.55 -872.47,-465.46 -872.44,-464.27 -872.44,-462.98 -872.45,-461.58 -872.49,-460.07 -872.55,-458.46 -872.62,-456.74 -872.72,-454.92 -872.84,-452.99 -872.98,-450.95 -873.14,-448.81"/>
    </edge>
    <edge id=":55_4" function="internal">
        <lane id=":55_4_0" index="0" disallow="pedestrian tram rail_urban rail rail_electric rail_fast ship" speed="9.23" length="21.66" width="3.50" shape="-876.00,-450.87 -873.72,-453.01 -872.25,-454.80 -871.66,-455.71 -871.16,-456.66 -870.77,-457.64 -870.51,-458.64 -870.40,-459.64 -870.43,-460.64 -870.61,-461.64 -870.94,-462.62 -871.38,-463.58 -871.94,-464.52 -872.58,-465.40 -874.13,-467.14 -875.87,-468.71"/>
    </edge>
    <edge id=":55_5" function="internal">
        <lane id=":55_5_0" index="0" disallow="pedestrian tram rail_urban rail rail_electric rail_fast ship" speed="36.11" length="34.14" width="3.50" shape="-876.00,-450.87 -855.73,-468.46 -850.18,-473.20"/>
    </edge>
    <edge id=":57_0" function="internal">
        <lane id=":57_0_0" index="0" disallow="pedestrian tram rail_urban rail rail_electric rail_fast ship" speed="36.11" length="33.42" width="3.50" shape="-876.07,-468.87 -880.92,-472.82 -891.61,-481.19 -902.52,-489.29"/>
    </edge>
    <edge id=":57_1" function="internal">
        <lane id=":57_1_0" index="0" disallow="pedestrian tram rail_urban rail rail_electric rail_fast ship" speed="11.09" length="33.10" width="3.50" shape="-876.07,-468.87 -877.14,-469.80 -879.06,-471.81 -879.96,-473.00 -880.74,-474.26 -881.39,-475.62 -881.87,-477.07 -882.15,-478.59 -882.22,-480.14 -882.07,-481.67 -881.72,-483.15 -881.22,-484.55 -880.59,-485.87 -879.84,-487.14 -878.19,-489.38 -876.33,-491.42 -874.33,-493.30 -871.20,-495.83"/>
    </edge>
    <edge id=":57_2" function="internal">
        <lane id=":57_2_0" index="0" disallow="pedestrian tram rail_urban rail rail_electric rail_fast ship" speed="9.99" length="26.61" width="3.50" shape="-869.09,-493.04 -871.80,-490.85 -873.50,-489.28 -875.08,-487.59 -876.48,-485.75 -877.09,-484.77 -877.62,-483.74 -878.05,-482.66 -878.36,-481.55 -878.52,-480.40 -878.52,-479.25 -878.36,-478.10 -878.04,-476.99 -877.57,-475.94 -876.98,-474.94 -876.30,-474.01 -874.71,-472.33 -873.84,-471.57"/>
    </edge>
    <edge id=":57_3" function="internal">
        <lane id=":57_3_0" index="0" disallow="pedestrian tram rail_urban rail rail_electric rail_fast ship" speed="14.22" length="36.35" width="3.50" shape="-869.09,-493.04 -872.07,-490.94 -875.17,-489.05 -878.42,-487.41 -881.81,-486.11 -884.14,-485.47 -886.53,-485.04 -888.94,-484.86 -891.36,-484.94 -893.75,-485.30 -896.09,-485.93 -898.34,-486.83 -900.48,-487.95 -902.52,-489.29"/>
    </edge>
    <edge id=":57_4" function="internal">
        <lane id=":57_4_0" index="0" disallow="pedestrian tram rail_urban rail rail_electric rail_fast ship" speed="13.34" length="31.89" width="3.50" shape="-900.48,-492.14 -898.70,-490.97 -896.85,-490.00 -894.91,-489.25 -892.91,-488.72 -890.86,-488.44 -888.79,-488.39 -886.71,-488.58 -884.64,-488.97 -882.61,-489.55 -879.59,-490.73 -876.69,-492.21 -873.90,-493.93 -871.20,-495.83"/>
    </edge>
    <edge id=":57_5" function="internal">
        <lane id=":57_5_0" index="0" disallow="pedestrian tram rail_urban rail rail_electric rail_fast ship" speed="36.11" length="33.66" width="3.50" shape="-900.48,-492.14 -889.49,-483.97 -878.73,-475.55 -873.84,-471.57"/>
    </edge>
    <edge id=":58_0" function="internal">
        <lane id=":58_0_0" index="0" disallow="pedestrian tram rail_urban rail rail_electric rail_fast ship" speed="20.11" length="42.16" width="3.50" shape="-799.69,-479.65 -807.87,-480.62 -815.05,-481.15 -820.18,-481.29 -825.32,-481.14 -829.41,-480.73 -832.45,-480.20 -835.43,-479.40 -837.35,-478.66 -839.18,-477.72 -840.85,-476.53"/>
    </edge>
    <edge id=":58_1" function="internal">
        <lane id=":58_1_0" index="0" disallow="pedestrian tram rail_urban rail rail_electric rail_fast ship" speed="11.59" length="47.71" width="3.50" shape="-799.69,-479.65 -805.13,-480.59 -808.69,-481.47 -812.16,-482.67 -813.83,-483.44 -815.42,-484.35 -816.89,-485.45 -818.16,-486.77 -819.11,-488.33 -819.63,-490.09 -819.68,-491.92 -819.34,-493.72 -818.71,-495.44 -817.88,-497.08 -816.91,-498.64 -814.68,-501.55 -812.20,-504.26 -808.19,-508.04 -806.81,-509.24"/>
    </edge>
    <edge id=":58_2" function="internal">
        <lane id=":58_2_0" index="0" disallow="pedestrian tram rail_urban rail rail_electric rail_fast ship" speed="10.48" length="38.73" width="3.50" shape="-804.51,-506.60 -805.74,-505.54 -809.26,-502.22 -811.39,-499.91 -813.29,-497.43 -814.08,-496.17 -814.75,-494.87 -815.25,-493.56 -815.51,-492.26 -815.50,-491.03 -815.18,-489.89 -814.55,-488.85 -813.66,-487.90 -812.55,-487.07 -811.29,-486.34 -809.96,-485.72 -807.01,-484.69 -803.96,-483.94 -799.21,-483.12"/>
    </edge>
    <edge id=":58_3" function="internal">
        <lane id=":58_3_0" index="0" disallow="pedestrian tram rail_urban rail rail_electric rail_fast ship" speed="36.11" length="47.17" width="3.50" shape="-804.51,-506.60 -806.90,-504.58 -825.89,-488.95 -840.85,-476.53"/>
    </edge>
    <edge id=":58_4" function="internal">
        <lane id=":58_4_0" index="0" disallow="pedestrian tram rail_urban rail rail_electric rail_fast ship" speed="36.11" length="47.13" width="3.50" shape="-843.12,-479.19 -828.14,-491.63 -809.15,-507.26 -806.81,-509.24"/>
    </edge>
    <edge id=":58_5" function="internal">
        <lane id=":58_5_0" index="0" disallow="pedestrian tram rail_urban rail rail_electric rail_fast ship" speed="20.79" length="45.09" width="3.50" shape="-843.12,-479.20 -841.18,-480.59 -839.11,-481.69 -836.97,-482.54 -833.74,-483.47 -830.46,-484.09 -826.10,-484.56 -820.67,-484.76 -815.26,-484.65 -807.75,-484.12 -799.21,-483.12"/>
    </edge>
    <edge id=":59_0" function="internal">
        <lane id=":59_0_0" index="0" disallow="pedestrian tram rail_urban rail rail_electric rail_fast ship" speed="36.11" length="38.50" width="3.50" shape="-862.29,-586.68 -872.44,-577.74 -891.00,-561.03"/>
    </edge>
    <edge id=":59_1" function="internal">
        <lane id=":59_1_0" index="0" disallow="pedestrian tram rail_urban rail rail_electric rail_fast ship" speed="11.86" length="35.08" width="3.50" shape="-862.29,-586.67 -865.34,-584.27 -867.57,-582.84 -869.96,-581.64 -872.50,-580.75 -873.87,-580.43 -875.25,-580.24 -876.66,-580.18 -878.06,-580.26 -879.46,-580.47 -880.82,-580.82 -882.14,-581.30 -883.39,-581.88 -884.59,-582.56 -885.74,-583.34 -887.78,-585.03 -889.65,-586.92 -892.07,-589.97"/>
    </edge>
    <edge id=":59_2" function="internal">
        <lane id=":59_2_0" index="0" disallow="pedestrian tram rail_urban rail rail_electric rail_fast ship" speed="10.85" length="29.13" width="3.50" shape="-889.23,-592.00 -887.13,-589.37 -885.56,-587.78 -883.83,-586.35 -882.90,-585.73 -881.93,-585.17 -880.91,-584.70 -879.86,-584.32 -878.77,-584.04 -877.67,-583.87 -876.55,-583.81 -875.43,-583.86 -874.32,-584.02 -873.23,-584.27 -871.11,-585.01 -869.11,-586.02 -867.23,-587.23 -864.59,-589.31"/>
    </edge>
    <edge id=":59_3" function="internal">
        <lane id=":59_3_0" index="0" disallow="pedestrian tram rail_urban rail rail_electric rail_fast ship" speed="12.92" length="34.66" width="3.50" shape="-889.23,-592.00 -887.12,-588.78 -885.36,-585.35 -884.42,-582.96 -883.74,-580.49 -883.36,-577.95 -883.33,-575.38 -883.66,-572.84 -884.37,-570.37 -885.42,-568.03 -886.75,-565.83 -888.32,-563.80 -890.07,-561.92 -891.00,-561.03"/>
    </edge>
    <edge id=":59_4" function="internal">
        <lane id=":59_4_0" index="0" disallow="pedestrian tram rail_urban rail rail_electric rail_fast ship" speed="11.96" length="29.55" width="3.50" shape="-893.37,-563.61 -892.56,-564.37 -891.04,-566.01 -889.70,-567.75 -888.58,-569.61 -887.72,-571.56 -887.14,-573.61 -886.88,-575.71 -886.92,-577.84 -887.26,-579.97 -887.85,-582.07 -888.65,-584.12 -890.21,-587.12 -892.07,-589.97"/>
    </edge>
    <edge id=":59_5" function="internal">
        <lane id=":59_5_0" index="0" disallow="pedestrian tram rail_urban rail rail_electric rail_fast ship" speed="36.11" length="38.59" width="3.50" shape="-893.37,-563.61 -874.76,-580.36 -864.59,-589.31"/>
    </edge>
    <edge id=":60_0" function="internal">
        <lane id=":60_0_0" index="0" disallow="pedestrian tram rail_urban rail rail_electric rail_fast ship" speed="36.11" length="38.99" width="3.50" shape="-755.64,-473.48 -774.94,-476.19 -794.25,-478.90"/>
    </edge>
    <edge id=":60_1" function="internal">
        <lane id=":60_1_0" index="0" disallow="pedestrian tram rail_urban rail rail_electric rail_fast ship" speed="36.11" length="38.97" width="3.50" shape="-793.77,-482.36 -774.46,-479.66 -755.18,-476.95"/>
    </edge>
    <edge id=":60_2" function="internal">
        <lane id=":60_2_0" index="0" disallow="pedestrian tram rail_urban rail rail_electric rail_fast ship" speed="12.30" length="34.57" width="3.50" shape="-793.77,-482.37 -789.83,-481.61 -787.28,-480.85 -784.83,-479.84 -782.51,-478.54 -781.43,-477.78 -780.41,-476.93 -779.46,-476.00 -778.59,-474.99 -777.82,-473.92 -777.14,-472.78 -776.56,-471.58 -776.08,-470.35 -775.39,-467.78 -775.03,-465.16 -774.95,-462.50 -775.24,-458.50"/>
    </edge>
    <edge id=":60_3" function="internal">
        <lane id=":60_3_0" index="0" disallow="pedestrian tram rail_urban rail rail_electric rail_fast ship" speed="11.31" length="29.03" width="3.50" shape="-778.71,-458.94 -778.45,-462.44 -778.52,-464.69 -778.83,-466.90 -779.41,-469.06 -779.80,-470.03 -780.27,-471.00 -780.82,-471.92 -781.44,-472.79 -782.14,-473.59 -782.91,-474.35 -783.74,-475.03 -784.60,-475.65 -786.56,-476.74 -788.63,-477.59 -790.80,-478.24 -794.25,-478.90"/>
    </edge>

    <edge id="13738" from="57" to="3" priority="3" type="highway.residential" spreadType="center" length="70.00" shape="-883.35,-486.44 -818.00,-541.16">
        <lane id="13738_0" index="0" disallow="pedestrian tram rail_urban rail rail_electric rail_fast ship" speed="36.11" length="70.00" width="3.50" customShape="1" shape="-871.20,-495.83 -854.79,-508.26 -844.57,-516.39 -835.77,-523.87 -828.73,-530.30 -821.59,-537.37 -818.00,-541.16"/>
    </edge>
    <edge id="13739" from="13" to="57" priority="3" type="highway.residential" spreadType="center" length="70.00" shape="-815.87,-538.33 -881.11,-483.76">
        <lane id="13739_0" index="0" disallow="pedestrian tram rail_urban rail rail_electric rail_fast ship" speed="36.11" length="70.00" width="3.50" customShape="1" shape="-815.87,-538.33 -819.17,-534.84 -826.38,-527.71 -833.49,-521.22 -842.35,-513.69 -852.63,-505.51 -869.10,-493.03"/>
    </edge>
    <edge id="13828" from="60" to="58" priority="3" type="highway.residential" spreadType="center" length="5.50" shape="-776.10,-469.89 -816.40,-487.46">
        <lane id="13828_0" index="0" disallow="pedestrian tram rail_urban rail rail_electric rail_fast ship" speed="36.11" length="5.50" width="3.50" customShape="1" shape="-794.25,-478.90 -796.96,-479.27 -799.70,-479.65"/>
    </edge>
    <edge id="13829" from="58" to="60" priority="3" type="highway.residential" spreadType="center" length="5.52" shape="-815.00,-490.66 -774.70,-473.10">
        <lane id="13829_0" index="0" disallow="pedestrian tram rail_urban rail rail_electric rail_fast ship" speed="36.11" length="5.52" width="3.50" customShape="1" shape="-799.21,-483.12 -796.48,-482.74 -793.74,-482.36"/>
    </edge>
    <edge id="13831" from="51" to="60" priority="3" type="highway.residential" spreadType="center" length="70.01" shape="-686.24,-464.34 -775.60,-469.78">
        <lane id="13831_0" index="0" disallow="pedestrian tram rail_urban rail rail_electric rail_fast ship" speed="36.11" length="70.01" width="3.50" customShape="1" shape="-686.24,-464.34 -711.21,-467.43 -755.65,-473.49"/>
    </edge>
    <edge id="13832" from="60" to="46" priority="3" type="highway.residential" spreadType="center" length="70.00" shape="-775.39,-473.27 -685.78,-467.81">
        <lane id="13832_0" index="0" disallow="pedestrian tram rail_urban rail rail_electric rail_fast ship" speed="36.11" length="70.00" width="3.50" customShape="1" shape="-755.18,-476.95 -710.75,-470.90 -685.78,-467.81"/>
    </edge>
    <edge id="13949" from="50" to="60" priority="3" type="highway.residential" spreadType="center" length="41.00" shape="-783.90,-418.27 -777.19,-471.80">
        <lane id="13949_0" index="0" disallow="pedestrian tram rail_urban rail rail_electric rail_fast ship" speed="36.11" length="41.00" width="3.50" customShape="1" shape="-783.90,-418.27 -781.30,-438.62 -778.71,-458.94"/>
    </edge>
    <edge id="13950" from="60" to="47" priority="3" type="highway.residential" spreadType="center" length="40.98" shape="-773.72,-471.36 -780.43,-417.85">
        <lane id="13950_0" index="0" disallow="pedestrian tram rail_urban rail rail_electric rail_fast ship" speed="36.11" length="40.98" width="3.50" customShape="1" shape="-775.24,-458.50 -777.83,-438.18 -780.43,-417.85"/>
    </edge>
    <edge id="13973" from="49" to="59" priority="3" type="highway.residential" spreadType="center" length="30.77" shape="-906.05,-617.70 -880.62,-581.37">
        <lane id="13973_0" index="0" disallow="pedestrian tram rail_urban rail rail_electric rail_fast ship" speed="36.11" length="30.77" width="3.50" customShape="1" shape="-906.05,-617.70 -901.78,-610.69 -896.24,-602.09 -889.20,-591.97"/>
    </edge>
    <edge id="13974" from="59" to="36" priority="3" type="highway.residential" spreadType="center" length="30.98" shape="-883.49,-579.37 -909.04,-615.88">
        <lane id="13974_0" index="0" disallow="pedestrian tram rail_urban rail rail_electric rail_fast ship" speed="36.11" length="30.98" width="3.50" customShape="1" shape="-892.07,-589.97 -899.15,-600.14 -904.75,-608.83 -909.04,-615.88"/>
    </edge>
    <edge id="14030" from="57" to="55" priority="3" type="highway.residential" spreadType="center" length="0.25" shape="-881.04,-486.42 -863.36,-468.26">
        <lane id="14030_0" index="0" disallow="pedestrian tram rail_urban rail rail_electric rail_fast ship" speed="36.11" length="0.25" width="3.50" customShape="1" shape="-873.84,-471.57 -873.74,-471.49 -873.65,-471.41"/>
    </edge>
    <edge id="14031" from="55" to="57" priority="3" type="highway.residential" spreadType="center" length="0.26" shape="-865.86,-465.82 -883.54,-483.99">
        <lane id="14031_0" index="0" disallow="pedestrian tram rail_urban rail rail_electric rail_fast ship" speed="36.11" length="0.26" width="3.50" customShape="1" shape="-875.87,-468.71 -875.97,-468.78 -876.08,-468.87"/>
    </edge>
    <edge id="14033" from="54" to="57" priority="3" type="highway.residential" spreadType="center" length="25.77" shape="-932.53,-524.00 -881.13,-486.51">
        <lane id="14033_0" index="0" disallow="pedestrian tram rail_urban rail rail_electric rail_fast ship" speed="36.11" length="25.77" width="3.50" customShape="1" shape="-921.35,-507.22 -910.90,-499.67 -900.47,-492.12"/>
    </edge>
    <edge id="14034" from="57" to="54" priority="3" type="highway.residential" spreadType="center" length="25.78" shape="-883.19,-483.68 -934.59,-521.18">
        <lane id="14034_0" index="0" disallow="pedestrian tram rail_urban rail rail_electric rail_fast ship" speed="36.11" length="25.78" width="3.50" customShape="1" shape="-902.52,-489.29 -912.95,-496.83 -923.42,-504.39"/>
    </edge>
    <edge id="14036" from="39" to="54" priority="3" type="highway.residential" spreadType="center" length="68.40" shape="-1009.09,-569.71 -932.63,-524.07">
        <lane id="14036_0" index="0" disallow="pedestrian tram rail_urban rail rail_electric rail_fast ship" speed="36.11" length="68.40" width="3.50" customShape="1" shape="-1009.09,-569.71 -981.20,-549.92 -953.31,-530.13"/>
    </edge>
    <edge id="14037" from="54" to="22" priority="3" type="highway.residential" spreadType="center" length="68.40" shape="-934.43,-521.07 -1011.12,-566.85">
        <lane id="14037_0" index="0" disallow="pedestrian tram rail_urban rail rail_electric rail_fast ship" speed="36.11" length="68.40" width="3.50" customShape="1" shape="-955.34,-527.27 -983.23,-547.06 -1011.12,-566.85"/>
    </edge>
    <edge id="14329" from="58" to="28" priority="3" type="highway.residential" spreadType="center" length="70.01" shape="-817.06,-490.16 -758.36,-559.70">
        <lane id="14329_0" index="0" disallow="pedestrian tram rail_urban rail rail_electric rail_fast ship" speed="36.11" length="70.01" width="3.50" customShape="1" shape="-806.81,-509.24 -801.87,-513.52 -796.34,-518.64 -789.37,-525.87 -773.97,-542.42 -758.36,-559.70"/>
    </edge>
    <edge id="14330" from="40" to="58" priority="3" type="highway.residential" spreadType="center" length="70.00" shape="-756.07,-557.02 -814.38,-487.91">
        <lane id="14330_0" index="0" disallow="pedestrian tram rail_urban rail rail_electric rail_fast ship" speed="36.11" length="70.00" width="3.50" customShape="1" shape="-756.07,-557.02 -771.45,-539.98 -786.92,-523.37 -793.95,-516.08 -799.56,-510.90 -804.53,-506.58"/>
    </edge>
    <edge id="14379" from="55" to="58" priority="3" type="highway.residential" spreadType="center" length="9.32" shape="-865.33,-468.64 -816.36,-490.68">
        <lane id="14379_0" index="0" disallow="pedestrian tram rail_urban rail rail_electric rail_fast ship" speed="36.11" length="9.32" width="3.50" customShape="1" shape="-850.18,-473.20 -846.65,-476.20 -843.08,-479.23"/>
    </edge>
    <edge id="14380" from="58" to="55" priority="3" type="highway.residential" spreadType="center" length="9.28" shape="-814.93,-487.49 -863.89,-465.45">
        <lane id="14380_0" index="0" disallow="pedestrian tram rail_urban rail rail_electric rail_fast ship" speed="36.11" length="9.28" width="3.50" customShape="1" shape="-840.85,-476.53 -844.38,-473.53 -847.92,-470.52"/>
    </edge>
    <edge id="14382" from="23" to="55" priority="3" type="highway.residential" spreadType="center" length="0.20" shape="-875.59,-451.23 -866.05,-468.04">
        <lane id="14382_0" index="0" disallow="pedestrian tram rail_urban rail rail_electric rail_fast ship" speed="36.11" length="0.20" width="3.50" customShape="1" shape="-876.15,-450.74 -876.00,-450.87"/>
    </edge>
    <edge id="14494" from="59" to="38" priority="3" type="highway.residential" spreadType="center" length="63.07" shape="-883.17,-581.81 -817.10,-630.81">
        <lane id="14494_0" index="0" disallow="pedestrian tram rail_urban rail rail_electric rail_fast ship" speed="36.11" length="63.07" width="3.50" customShape="1" shape="-864.59,-589.31 -840.86,-610.05 -817.10,-630.81"/>
    </edge>
    <edge id="14495" from="48" to="59" priority="3" type="highway.residential" spreadType="center" length="63.09" shape="-814.80,-628.17 -881.08,-579.00">
        <lane id="14495_0" index="0" disallow="pedestrian tram rail_urban rail rail_electric rail_fast ship" speed="36.11" length="63.09" width="3.50" customShape="1" shape="-814.80,-628.17 -838.55,-607.42 -862.31,-586.66"/>
    </edge>
    <edge id="14497" from="54" to="59" priority="3" type="highway.residential" spreadType="center" length="43.07" shape="-934.87,-523.75 -883.37,-581.62">
        <lane id="14497_0" index="0" disallow="pedestrian tram rail_urban rail rail_electric rail_fast ship" speed="36.11" length="43.07" width="3.50" customShape="1" shape="-925.14,-534.54 -909.25,-549.08 -893.36,-563.61"/>
    </edge>
    <edge id="14498" from="59" to="54" priority="3" type="highway.residential" spreadType="center" length="43.07" shape="-880.76,-579.30 -932.25,-521.43">
        <lane id="14498_0" index="0" disallow="pedestrian tram rail_urban rail rail_electric rail_fast ship" speed="36.11" length="43.07" width="3.50" customShape="1" shape="-891.00,-561.03 -906.88,-546.50 -922.78,-531.96"/>
    </edge>
    <edge id="16760" from="24" to="23" priority="3" type="highway.residential" spreadType="center" length="68.50">