<routes>
	<vehicle depart="0.1" departLane="0" departPos="5.365404653090435" departSpeed="6.6673679" id="37" type="bicycle">
		<route edges=":57_5 14030"/>
	</vehicle>
	<vehicle depart="0.1" departLane="0" departPos="29.38316272560618" departSpeed="6.8576682" id="311" type="passenger">
		<route edges=":57_5 14030 17043"/>
	</vehicle>
	<vehicle depart="0.1" departLane="0" departPos="8.17858959589822" departSpeed="7.5685467" id="314" type="passenger">
		<route edges=":58_3 14380"/>
	</vehicle>
	<vehicle depart="0.1" departLane="0" departPos="11.01926548314358" departSpeed="2.7191108" id="315" type="passenger">
		<route edges=":55_4 14031 13738"/>
	</vehicle>
	<vehicle depart="0.1" departLane="0" departPos="72.49995353833377" departSpeed="1.6449864" id="324" type="passenger">
		<route edges="16760 14382 14379 13829"/>
	</vehicle>
	<vehicle depart="0.1" departLane="0" departPos="61.10469440655508" departSpeed="0.45280141" id="338" type="passenger">
		<route edges="16760 14382"/>
	</vehicle>
	<vehicle depart="0.1" departLane="0" departPos="52.99838826596302" departSpeed="0.58559661" id="346" type="passenger">
		<route edges="16760 14382"/>
	</vehicle>
	<vehicle depart="0.1" departLane="0" departPos="66.61154505691691" departSpeed="0.90933723" id="328" type="motorcycle">
		<route edges="16760 14382 14031 13738"/>
	</vehicle>
</routes>
