<?xml version="1.0" encoding="UTF-8"?>

<!-- generated on Fri Dec 18 16:21:43 2020 by Eclipse SUMO netconvert Version 1.8.0
<configuration xmlns:xsi="http://www.w3.org/2001/XMLSchema-instance" xsi:noNamespaceSchemaLocation="http://sumo.dlr.de/xsd/netconvertConfiguration.xsd">

    <input>
        <node-files value="./converted_scenarios/SUMO/DEU_Muc-10_1_I-1-1/nodes.net.xml"/>
        <edge-files value="./converted_scenarios/SUMO/DEU_Muc-10_1_I-1-1/edges.net.xml"/>
        <connection-files value="./converted_scenarios/SUMO/DEU_Muc-10_1_I-1-1/_connections.net.xml"/>
        <tllogic-files value="./converted_scenarios/SUMO/DEU_Muc-10_1_I-1-1/_tll.net.xml"/>
    </input>

    <output>
        <output-file value="./converted_scenarios/SUMO/DEU_Muc-10_1_I-1-1/DEU_Muc-10_1_I-1-1.net.xml"/>
    </output>

    <processing>
        <plain.extend-edge-shape value="true"/>
        <geometry.remove.keep-edges.explicit value="true"/>
        <geometry.avoid-overlap value="true"/>
        <offset.disable-normalization value="true"/>
    </processing>

    <junctions>
        <no-turnarounds value="true"/>
        <junctions.internal-link-detail value="20"/>
    </junctions>

    <report>
        <aggregate-warnings value="5"/>
    </report>

    <random_number>
        <seed value="1234"/>
    </random_number>

</configuration>
-->

<net version="1.6" junctionCornerDetail="5" junctionLinkDetail="20" limitTurnSpeed="5.50" xmlns:xsi="http://www.w3.org/2001/XMLSchema-instance" xsi:noNamespaceSchemaLocation="http://sumo.dlr.de/xsd/net_file.xsd">

    <location netOffset="0.00,0.00" convBoundary="-183.81,-192.78,200.56,164.09" origBoundary="-183.81,-195.19,200.56,164.09" projParameter="!"/>

    <edge id=":1_0" function="internal">
        <lane id=":1_0_0" index="0" disallow="bus truck rail_fast" speed="28.39" length="8.44" width="2.50" shape="-101.42,58.71 -101.21,58.12 -101.01,57.59 -100.84,57.11 -100.67,56.67 -100.52,56.27 -100.38,55.90 -100.24,55.56 -100.09,55.24 -99.95,54.93 -99.79,54.64 -99.63,54.34 -99.45,54.04 -99.25,53.73 -99.03,53.41 -98.78,53.06 -98.50,52.69 -98.19,52.28 -97.84,51.84 -97.45,51.34"/>
    </edge>
    <edge id=":1_1" function="internal">
        <lane id=":1_1_0" index="0" disallow="bus truck rail_fast" speed="36.11" length="6.50" width="2.50" shape="-101.97,55.99 -101.61,55.67 -101.28,55.37 -100.99,55.11 -100.72,54.87 -100.47,54.65 -100.25,54.45 -100.04,54.26 -99.84,54.08 -99.66,53.90 -99.47,53.71 -99.29,53.53 -99.11,53.33 -98.92,53.12 -98.72,52.90 -98.51,52.65 -98.28,52.37 -98.03,52.06 -97.75,51.72 -97.45,51.34"/>
    </edge>
    <edge id=":1_2" function="internal">
        <lane id=":1_2_0" index="0" disallow="rail_fast" speed="36.11" length="9.30" width="2.50" shape="-103.18,58.67 -97.45,51.34"/>
    </edge>
    <edge id=":100_0" function="internal">
        <lane id=":100_0_0" index="0" disallow="bus truck rail_fast" speed="6.42" length="7.71" width="2.50" shape="-110.53,-116.07 -110.97,-115.49 -111.38,-114.94 -111.76,-114.41 -112.11,-113.90 -112.43,-113.43 -112.73,-112.98 -112.99,-112.55 -113.23,-112.15 -113.43,-111.77 -113.61,-111.42 -113.76,-111.10 -113.88,-110.80 -113.97,-110.52 -114.03,-110.27 -114.07,-110.05 -114.07,-109.85 -114.04,-109.68 -113.99,-109.53 -113.91,-109.41"/>
    </edge>
    <edge id=":100_1" function="internal">
        <lane id=":100_1_0" index="0" disallow="rail_fast" speed="36.11" length="9.06" width="2.50" shape="-110.53,-116.07 -115.96,-108.82"/>
    </edge>
    <edge id=":100_2" function="internal">
        <lane id=":100_2_0" index="0" disallow="bus truck rail_fast" speed="14.75" length="8.17" width="2.50" shape="-110.53,-116.07 -110.90,-115.60 -111.24,-115.17 -111.56,-114.80 -111.86,-114.47 -112.15,-114.18 -112.42,-113.93 -112.69,-113.70 -112.96,-113.50 -113.24,-113.31 -113.52,-113.15 -113.81,-112.99 -114.12,-112.83 -114.45,-112.68 -114.80,-112.52 -115.19,-112.35 -115.61,-112.17 -116.06,-111.97 -116.56,-111.74 -117.11,-111.48"/>
    </edge>
    <edge id=":101_0" function="internal">
        <lane id=":101_0_0" index="0" disallow="bus truck rail_fast" speed="36.11" length="0.94" width="2.28" shape="137.54,42.01 137.51,41.06"/>
    </edge>
    <edge id=":101_1" function="internal">
        <lane id=":101_1_0" index="0" disallow="bus truck rail_fast" speed="5.27" length="1.98" width="2.28" shape="138.30,39.24 137.51,41.06"/>
    </edge>
    <edge id=":102_0" function="internal">
        <lane id=":102_0_0" index="0" disallow="bus truck rail_fast" speed="4.57" length="6.58" width="1.86" shape="137.32,41.10 137.14,41.15 137.01,41.22 136.92,41.31 136.87,41.42 136.86,41.55 136.89,41.71 136.96,41.88 137.07,42.08 137.22,42.30 137.41,42.53 137.65,42.79 137.92,43.07 138.23,43.37 138.59,43.70 138.99,44.04 139.42,44.41 139.90,44.79 140.42,45.20 140.98,45.63"/>
    </edge>
    <edge id=":102_1" function="internal">
        <lane id=":102_1_0" index="0" disallow="bus truck rail_fast" speed="7.71" length="4.32" width="2.48" shape="137.32,41.10 137.02,41.17 136.75,41.24 136.52,41.33 136.32,41.42 136.15,41.53 136.00,41.64 135.86,41.76 135.75,41.89 135.64,42.03 135.54,42.19 135.44,42.35 135.35,42.52 135.25,42.70 135.15,42.89 135.03,43.09 134.90,43.31 134.75,43.53 134.58,43.76 134.39,44.01"/>
    </edge>
    <edge id=":103_0" function="internal">
        <lane id=":103_0_0" index="0" disallow="bus truck rail_fast" speed="5.80" length="5.68" width="2.44" shape="135.20,43.91 135.06,43.54 134.95,43.18 134.86,42.84 134.78,42.51 134.73,42.18 134.70,41.87 134.68,41.56 134.69,41.27 134.71,40.99 134.75,40.72 134.82,40.46 134.90,40.20 135.01,39.96 135.13,39.73 135.27,39.51 135.43,39.30 135.61,39.10 135.82,38.91 136.04,38.73"/>
    </edge>
    <edge id=":103_1" function="internal">
        <lane id=":103_1_0" index="0" disallow="bus truck rail_fast" speed="36.11" length="5.15" width="2.44" shape="132.47,42.41 132.71,42.11 132.93,41.84 133.13,41.60 133.30,41.38 133.47,41.17 133.62,40.98 133.76,40.81 133.90,40.64 134.03,40.49 134.17,40.34 134.31,40.19 134.46,40.04 134.62,39.88 134.80,39.72 134.99,39.55 135.21,39.37 135.46,39.18 135.73,38.97 136.04,38.73"/>
    </edge>
    <edge id=":104_0" function="internal">
        <lane id=":104_0_0" index="0" disallow="bus truck rail_fast" speed="36.11" length="1.10" width="2.50" shape="136.20,38.61 136.45,37.54"/>
    </edge>
    <edge id=":104_1" function="internal">
        <lane id=":104_1_0" index="0" disallow="bus truck rail_fast" speed="4.49" length="2.68" width="2.50" shape="136.20,38.61 136.32,38.53 136.45,38.46 136.57,38.41 136.70,38.37 136.83,38.35 136.95,38.35 137.08,38.35 137.21,38.37 137.34,38.40 137.47,38.44 137.60,38.48 137.73,38.53 137.86,38.59 137.99,38.66 138.12,38.73 138.26,38.80 138.39,38.87 138.53,38.95 138.67,39.03"/>
    </edge>
    <edge id=":106_0" function="internal">
        <lane id=":106_0_0" index="0" disallow="bus truck rail_fast" speed="36.11" length="3.28" width="2.50" shape="26.90,-190.78 24.27,-192.75"/>
    </edge>
    <edge id=":106_1" function="internal">
        <lane id=":106_1_0" index="0" disallow="bus truck rail_fast" speed="14.57" length="3.51" width="2.50" shape="28.46,-192.72 28.26,-192.89 28.08,-193.05 27.92,-193.19 27.78,-193.33 27.65,-193.45 27.53,-193.57 27.42,-193.68 27.31,-193.78 27.21,-193.88 27.10,-193.97 26.99,-194.06 26.88,-194.15 26.75,-194.23 26.61,-194.31 26.46,-194.39 26.29,-194.48 26.09,-194.56 25.88,-194.64 25.63,-194.73"/>
    </edge>
    <edge id=":107_0" function="internal">
        <lane id=":107_0_0" index="0" disallow="bus truck rail_fast" speed="36.11" length="5.17" width="2.46" shape="-136.95,-3.97 -137.19,-3.67 -137.41,-3.40 -137.60,-3.15 -137.78,-2.92 -137.93,-2.71 -138.08,-2.52 -138.22,-2.34 -138.35,-2.17 -138.48,-2.01 -138.61,-1.85 -138.75,-1.69 -138.89,-1.53 -139.05,-1.37 -139.22,-1.20 -139.40,-1.02 -139.61,-0.83 -139.85,-0.62 -140.11,-0.39 -140.40,-0.14"/>
    </edge>
    <edge id=":107_1" function="internal">
        <lane id=":107_1_0" index="0" disallow="bus truck rail_fast" speed="6.02" length="5.49" width="2.46" shape="-139.44,-5.19 -139.33,-4.84 -139.25,-4.51 -139.18,-4.18 -139.12,-3.86 -139.09,-3.55 -139.07,-3.25 -139.07,-2.96 -139.08,-2.67 -139.12,-2.40 -139.17,-2.13 -139.24,-1.88 -139.32,-1.63 -139.42,-1.39 -139.54,-1.16 -139.68,-0.94 -139.84,-0.72 -140.01,-0.52 -140.20,-0.33 -140.40,-0.14"/>
    </edge>
    <edge id=":108_0" function="internal">
        <lane id=":108_0_0" index="0" disallow="bus truck rail_fast" speed="36.11" length="0.62" width="2.50" shape="-140.56,-0.01 -140.63,0.60"/>
    </edge>
    <edge id=":108_1" function="internal">
        <lane id=":108_1_0" index="0" disallow="bus truck rail_fast" speed="3.85" length="2.25" width="1.98" shape="-140.56,-0.01 -140.64,0.06 -140.73,0.11 -140.82,0.16 -140.91,0.20 -141.00,0.23 -141.10,0.25 -141.20,0.26 -141.30,0.27 -141.41,0.26 -141.51,0.25 -141.62,0.22 -141.74,0.19 -141.85,0.15 -141.97,0.10 -142.09,0.04 -142.22,-0.02 -142.34,-0.10 -142.47,-0.18 -142.60,-0.28"/>
    </edge>
    <edge id=":109_0" function="internal">
        <lane id=":109_0_0" index="0" disallow="bus truck rail_fast" speed="4.22" length="3.99" width="2.31" shape="-144.47,-4.55 -144.36,-4.41 -144.24,-4.25 -144.11,-4.08 -143.96,-3.89 -143.81,-3.70 -143.65,-3.50 -143.48,-3.30 -143.30,-3.10 -143.12,-2.91 -142.95,-2.73 -142.77,-2.56 -142.59,-2.41 -142.42,-2.29 -142.25,-2.19 -142.10,-2.13 -141.95,-2.09 -141.81,-2.10 -141.68,-2.15 -141.57,-2.25"/>
    </edge>
    <edge id=":109_1" function="internal">
        <lane id=":109_1_0" index="0" disallow="bus truck rail_fast" speed="36.11" length="1.77" width="2.31" shape="-142.67,-0.86 -141.57,-2.25"/>
    </edge>
    <edge id=":110_0" function="internal">
        <lane id=":110_0_0" index="0" disallow="bus truck rail_fast" speed="5.26" length="6.25" width="2.31" shape="-141.45,-2.39 -141.38,-2.49 -141.35,-2.61 -141.35,-2.73 -141.38,-2.88 -141.44,-3.03 -141.53,-3.20 -141.66,-3.39 -141.81,-3.59 -142.00,-3.80 -142.21,-4.03 -142.46,-4.27 -142.74,-4.52 -143.05,-4.79 -143.40,-5.08 -143.77,-5.38 -144.17,-5.69 -144.61,-6.01 -145.08,-6.36 -145.58,-6.71"/>
    </edge>
    <edge id=":110_1" function="internal">
        <lane id=":110_1_0" index="0" disallow="bus truck rail_fast" speed="36.11" length="3.99" width="2.31" shape="-141.45,-2.39 -138.94,-5.50"/>
    </edge>
    <edge id=":111_0" function="internal">
        <lane id=":111_0_0" index="0" disallow="bus truck rail_fast" speed="36.11" length="5.69" width="2.50" shape="141.02,105.50 140.71,105.79 140.43,106.05 140.18,106.29 139.95,106.51 139.74,106.70 139.55,106.89 139.37,107.06 139.20,107.22 139.04,107.39 138.89,107.55 138.74,107.72 138.59,107.90 138.43,108.09 138.27,108.30 138.09,108.53 137.91,108.78 137.70,109.06 137.48,109.37 137.24,109.72"/>
    </edge>
    <edge id=":111_1" function="internal">
        <lane id=":111_1_0" index="0" disallow="bus truck rail_fast" speed="36.11" length="7.26" width="2.50" shape="140.59,103.34 140.42,103.85 140.26,104.31 140.11,104.73 139.97,105.10 139.84,105.44 139.71,105.76 139.59,106.05 139.46,106.32 139.33,106.58 139.19,106.83 139.04,107.08 138.88,107.34 138.71,107.60 138.52,107.88 138.31,108.19 138.08,108.52 137.83,108.88 137.55,109.28 137.24,109.72"/>
    </edge>
    <edge id=":112_0" function="internal">
        <lane id=":112_0_0" index="0" disallow="bus truck rail_fast" speed="36.11" length="3.22" width="2.50" shape="129.07,120.06 128.92,120.25 128.77,120.41 128.65,120.56 128.53,120.69 128.42,120.81 128.32,120.93 128.22,121.03 128.14,121.13 128.05,121.23 127.97,121.32 127.89,121.42 127.80,121.53 127.72,121.64 127.64,121.76 127.54,121.90 127.45,122.05 127.34,122.21 127.23,122.40 127.11,122.60"/>
    </edge>
    <edge id=":113_0" function="internal">
        <lane id=":113_0_0" index="0" disallow="bus truck rail_fast" speed="36.11" length="0.21" width="2.50" shape="126.05,119.80 126.18,119.63"/>
    </edge>
    <edge id=":114_0" function="internal">
        <lane id=":114_0_0" index="0" disallow="bus truck rail_fast" speed="6.76" length="6.86" width="2.50" shape="135.24,108.22 135.35,108.06 135.50,107.85 135.69,107.60 135.90,107.32 136.14,107.00 136.39,106.65 136.66,106.28 136.93,105.90 137.20,105.51 137.46,105.11 137.71,104.72 137.94,104.34 138.15,103.97 138.33,103.62 138.48,103.29 138.58,103.00 138.64,102.75 138.65,102.54 138.60,102.37"/>
    </edge>
    <edge id=":114_1" function="internal">
        <lane id=":114_1_0" index="0" disallow="bus truck rail_fast" speed="8.88" length="7.53" width="2.50" shape="135.24,108.22 135.58,107.74 135.91,107.29 136.23,106.87 136.55,106.46 136.87,106.09 137.18,105.73 137.48,105.40 137.78,105.09 138.08,104.81 138.36,104.55 138.65,104.31 138.92,104.10 139.19,103.91 139.46,103.74 139.72,103.60 139.97,103.48 140.22,103.39 140.47,103.32 140.70,103.27"/>
    </edge>
    <edge id=":115_0" function="internal">
        <lane id=":115_0_0" index="0" disallow="bus truck rail_fast" speed="36.11" length="3.13" width="2.50" shape="127.92,128.84 128.07,129.02 128.22,129.17 128.35,129.31 128.47,129.43 128.58,129.54 128.68,129.64 128.78,129.74 128.88,129.82 128.98,129.90 129.08,129.98 129.17,130.06 129.28,130.13 129.39,130.22 129.50,130.31 129.63,130.40 129.77,130.51 129.92,130.62 130.08,130.76 130.26,130.90"/>
    </edge>
    <edge id=":118_0" function="internal">
        <lane id=":118_0_0" index="0" disallow="bus truck rail_fast" speed="36.11" length="3.15" width="2.50" shape="128.67,132.83 128.48,132.68 128.32,132.55 128.16,132.43 128.02,132.32 127.90,132.23 127.78,132.14 127.66,132.06 127.56,131.98 127.46,131.91 127.36,131.83 127.26,131.75 127.16,131.67 127.06,131.58 126.95,131.48 126.84,131.37 126.71,131.24 126.58,131.11 126.44,130.95 126.28,130.77"/>
    </edge>
    <edge id=":119_0" function="internal">
        <lane id=":119_0_0" index="0" disallow="bus truck rail_fast" speed="36.11" length="6.28" width="2.50" shape="107.35,77.17 106.99,77.48 106.67,77.76 106.38,78.01 106.11,78.23 105.87,78.44 105.65,78.63 105.44,78.81 105.25,78.98 105.06,79.15 104.88,79.32 104.70,79.50 104.52,79.68 104.33,79.88 104.13,80.09 103.92,80.33 103.69,80.59 103.44,80.88 103.17,81.20 102.87,81.56"/>
    </edge>
    <edge id=":119_1" function="internal">
        <lane id=":119_1_0" index="0" disallow="bus truck rail_fast" speed="36.11" length="8.87" width="2.50" shape="108.55,74.76 102.87,81.56"/>
    </edge>
    <edge id=":119_2" function="internal">
        <lane id=":119_2_0" index="0" disallow="bus truck rail_fast" speed="14.73" length="8.26" width="2.50" shape="106.54,74.33 106.40,74.92 106.28,75.46 106.16,75.95 106.04,76.39 105.93,76.79 105.81,77.15 105.69,77.49 105.56,77.81 105.42,78.11 105.27,78.41 105.10,78.69 104.91,78.98 104.70,79.28 104.47,79.59 104.22,79.93 103.93,80.28 103.61,80.67 103.26,81.10 102.87,81.56"/>
    </edge>
    <edge id=":12_0" function="internal">
        <lane id=":12_0_0" index="0" disallow="bus truck rail_fast" speed="6.26" length="7.75" width="2.50" shape="-127.39,-118.86 -126.82,-118.42 -126.26,-118.01 -125.73,-117.63 -125.23,-117.28 -124.75,-116.97 -124.30,-116.68 -123.87,-116.42 -123.46,-116.19 -123.09,-116.00 -122.73,-115.83 -122.40,-115.69 -122.10,-115.59 -121.82,-115.51 -121.57,-115.46 -121.34,-115.45 -121.13,-115.46 -120.96,-115.50 -120.80,-115.58 -120.67,-115.68"/>
    </edge>
    <edge id=":12_1" function="internal">
        <lane id=":12_1_0" index="0" disallow="rail_fast" speed="36.11" length="7.98" width="2.23" shape="-127.39,-118.86 -121.06,-114.01"/>
    </edge>
    <edge id=":122_0" function="internal">
        <lane id=":122_0_0" index="0" disallow="bus truck rail_fast" speed="6.39" length="7.95" width="2.50" shape="100.74,80.22 101.22,79.64 101.67,79.08 102.08,78.55 102.47,78.04 102.82,77.56 103.14,77.10 103.43,76.67 103.69,76.27 103.92,75.89 104.12,75.54 104.28,75.21 104.41,74.91 104.52,74.63 104.59,74.38 104.63,74.15 104.63,73.95 104.61,73.78 104.56,73.63 104.47,73.50"/>
    </edge>
    <edge id=":122_1" function="internal">
        <lane id=":122_1_0" index="0" disallow="bus truck rail_fast" speed="36.11" length="9.37" width="2.50" shape="100.74,80.22 106.74,73.03"/>
    </edge>
    <edge id=":122_2" function="internal">
        <lane id=":122_2_0" index="0" disallow="bus truck rail_fast" speed="7.73" length="9.69" width="2.50" shape="100.74,80.22 101.28,79.57 101.81,78.96 102.33,78.39 102.82,77.86 103.30,77.37 103.76,76.92 104.21,76.51 104.64,76.14 105.05,75.80 105.44,75.51 105.82,75.26 106.18,75.04 106.52,74.87 106.85,74.73 107.16,74.63 107.45,74.58 107.73,74.56 107.99,74.58 108.23,74.64"/>
    </edge>
    <edge id=":123_0" function="internal">
        <lane id=":123_0_0" index="0" disallow="bus truck rail_fast" speed="22.15" length="7.04" width="2.50" shape="138.50,102.20 138.23,101.75 137.98,101.35 137.76,100.98 137.55,100.65 137.36,100.35 137.18,100.07 137.01,99.82 136.84,99.58 136.67,99.36 136.49,99.14 136.30,98.93 136.10,98.72 135.88,98.51 135.64,98.28 135.38,98.04 135.08,97.79 134.76,97.51 134.39,97.21 133.99,96.88"/>
    </edge>
    <edge id=":123_1" function="internal">
        <lane id=":123_1_0" index="0" disallow="rail_fast" speed="36.11" length="9.00" width="2.50" shape="140.95,102.59 133.99,96.88"/>
    </edge>
    <edge id=":124_0" function="internal">
        <lane id=":124_0_0" index="0" disallow="bus truck rail_fast" speed="6.31" length="7.54" width="2.50" shape="113.92,80.44 113.37,80.00 112.84,79.58 112.34,79.20 111.86,78.84 111.41,78.52 110.98,78.22 110.57,77.95 110.18,77.72 109.82,77.51 109.49,77.33 109.17,77.18 108.88,77.06 108.61,76.97 108.37,76.91 108.15,76.88 107.95,76.87 107.77,76.90 107.62,76.96 107.50,77.04"/>
    </edge>
    <edge id=":124_1" function="internal">
        <lane id=":124_1_0" index="0" disallow="rail_fast" speed="36.11" length="8.92" width="2.50" shape="113.92,80.44 107.02,74.79"/>
    </edge>
    <edge id=":124_2" function="internal">
        <lane id=":124_2_0" index="0" disallow="bus truck rail_fast" speed="7.46" length="9.23" width="2.50" shape="113.92,80.44 113.29,79.92 112.71,79.42 112.16,78.93 111.65,78.46 111.17,78.01 110.74,77.57 110.34,77.15 109.98,76.74 109.66,76.35 109.38,75.98 109.13,75.62 108.93,75.28 108.76,74.96 108.63,74.65 108.54,74.36 108.48,74.09 108.47,73.83 108.49,73.58 108.55,73.36"/>
    </edge>
    <edge id=":125_0" function="internal">
        <lane id=":125_0_0" index="0" disallow="bus truck rail_fast" speed="36.11" length="6.21" width="2.50" shape="111.12,74.10 111.43,74.45 111.70,74.77 111.94,75.05 112.17,75.31 112.37,75.55 112.56,75.77 112.74,75.97 112.91,76.16 113.08,76.35 113.25,76.52 113.42,76.70 113.61,76.88 113.80,77.06 114.02,77.26 114.25,77.46 114.51,77.69 114.80,77.93 115.12,78.20 115.48,78.49"/>
    </edge>
    <edge id=":125_1" function="internal">
        <lane id=":125_1_0" index="0" disallow="rail_fast" speed="36.11" length="8.93" width="2.50" shape="108.57,72.83 115.48,78.49"/>
    </edge>
    <edge id=":125_2" function="internal">
        <lane id=":125_2_0" index="0" disallow="bus truck rail_fast" speed="21.98" length="8.09" width="2.50" shape="108.42,74.71 108.99,74.90 109.50,75.08 109.97,75.24 110.39,75.39 110.78,75.53 111.13,75.66 111.46,75.79 111.77,75.93 112.06,76.06 112.35,76.21 112.63,76.37 112.92,76.55 113.21,76.74 113.52,76.96 113.85,77.20 114.21,77.47 114.59,77.77 115.02,78.11 115.48,78.49"/>
    </edge>
    <edge id=":126_0" function="internal">
        <lane id=":126_0_0" index="0" disallow="rail_fast" speed="36.11" length="8.92" width="2.50" shape="135.62,94.98 142.51,100.64"/>
    </edge>
    <edge id=":126_1" function="internal">
        <lane id=":126_1_0" index="0" disallow="bus truck rail_fast" speed="7.88" length="10.11" width="2.50" shape="135.62,94.98 136.24,95.50 136.82,96.01 137.37,96.51 137.87,97.01 138.33,97.49 138.76,97.96 139.14,98.42 139.49,98.87 139.79,99.31 140.06,99.74 140.28,100.16 140.47,100.57 140.61,100.97 140.72,101.36 140.79,101.73 140.81,102.10 140.80,102.46 140.75,102.81 140.66,103.15"/>
    </edge>
    <edge id=":128_0" function="internal">
        <lane id=":128_0_0" index="0" disallow="bus truck rail_fast" speed="6.31" length="7.20" width="2.50" shape="-108.55,65.63 -108.14,65.08 -107.77,64.56 -107.41,64.06 -107.09,63.59 -106.79,63.14 -106.51,62.71 -106.27,62.31 -106.05,61.93 -105.85,61.58 -105.69,61.25 -105.54,60.95 -105.43,60.67 -105.34,60.41 -105.28,60.18 -105.24,59.98 -105.23,59.80 -105.25,59.64 -105.29,59.51 -105.36,59.40"/>
    </edge>
    <edge id=":128_1" function="internal">
        <lane id=":128_1_0" index="0" disallow="bus truck rail_fast" speed="36.11" length="8.59" width="2.50" shape="-108.55,65.63 -103.30,58.83"/>
    </edge>
    <edge id=":128_2" function="internal">
        <lane id=":128_2_0" index="0" disallow="bus truck rail_fast" speed="7.99" length="8.62" width="2.50" shape="-108.55,65.63 -108.13,65.09 -107.72,64.57 -107.32,64.09 -106.93,63.64 -106.55,63.21 -106.17,62.82 -105.80,62.47 -105.43,62.14 -105.08,61.84 -104.73,61.58 -104.39,61.34 -104.06,61.14 -103.73,60.97 -103.41,60.83 -103.10,60.72 -102.80,60.65 -102.50,60.60 -102.21,60.59 -101.93,60.60"/>
    </edge>
    <edge id=":129_0" function="internal">
        <lane id=":129_0_0" index="0" disallow="bus truck rail_fast" speed="36.11" length="6.53" width="2.50" shape="-102.34,62.69 -102.70,63.02 -103.02,63.32 -103.32,63.59 -103.59,63.83 -103.83,64.05 -104.05,64.26 -104.26,64.46 -104.45,64.64 -104.64,64.83 -104.82,65.01 -105.00,65.21 -105.18,65.41 -105.36,65.62 -105.56,65.85 -105.76,66.11 -105.98,66.39 -106.23,66.71 -106.49,67.06 -106.79,67.45"/>
    </edge>
    <edge id=":129_1" function="internal">
        <lane id=":129_1_0" index="0" disallow="bus truck rail_fast" speed="36.11" length="9.21" width="2.50" shape="-101.16,60.15 -106.79,67.45"/>
    </edge>
    <edge id=":129_2" function="internal">
        <lane id=":129_2_0" index="0" disallow="bus truck rail_fast" speed="12.95" length="8.66" width="2.50" shape="-103.47,59.67 -103.53,60.30 -103.59,60.88 -103.66,61.39 -103.73,61.86 -103.81,62.29 -103.90,62.68 -104.00,63.05 -104.12,63.39 -104.25,63.71 -104.40,64.02 -104.56,64.34 -104.75,64.65 -104.96,64.97 -105.19,65.31 -105.45,65.67 -105.74,66.05 -106.06,66.48 -106.40,66.94 -106.79,67.45"/>
    </edge>
    <edge id=":13_0" function="internal">
        <lane id=":13_0_0" index="0" disallow="bus truck rail_fast" speed="36.11" length="2.85" width="2.50" shape="17.84,-192.08 15.97,-189.93"/>
    </edge>
    <edge id=":13_1" function="internal">
        <lane id=":13_1_0" index="0" disallow="bus truck rail_fast" speed="36.11" length="2.86" width="2.50" shape="17.92,-192.02 17.76,-191.87 17.62,-191.74 17.49,-191.63 17.38,-191.52 17.27,-191.42 17.18,-191.32 17.09,-191.24 17.01,-191.15 16.93,-191.07 16.85,-190.98 16.78,-190.90 16.70,-190.81 16.62,-190.71 16.54,-190.61 16.44,-190.50 16.34,-190.38 16.23,-190.24 16.11,-190.09 15.97,-189.93"/>
    </edge>
    <edge id=":14_0" function="internal">
        <lane id=":14_0_0" index="0" disallow="bus truck rail_fast" speed="6.29" length="7.45" width="2.50" shape="-71.30,-85.46 -71.74,-84.93 -72.15,-84.41 -72.54,-83.92 -72.89,-83.45 -73.22,-83.01 -73.52,-82.58 -73.79,-82.18 -74.02,-81.80 -74.23,-81.45 -74.41,-81.12 -74.56,-80.81 -74.69,-80.52 -74.78,-80.26 -74.84,-80.01 -74.87,-79.80 -74.88,-79.60 -74.85,-79.43 -74.80,-79.28 -74.72,-79.15"/>
    </edge>
    <edge id=":14_1" function="internal">
        <lane id=":14_1_0" index="0" disallow="rail_fast" speed="36.11" length="9.06" width="2.50" shape="-71.30,-85.46 -77.05,-78.46"/>
    </edge>
    <edge id=":14_2" function="internal">
        <lane id=":14_2_0" index="0" disallow="bus truck rail_fast" speed="8.22" length="8.86" width="2.50" shape="-71.30,-85.46 -71.76,-84.92 -72.22,-84.40 -72.66,-83.92 -73.09,-83.47 -73.51,-83.05 -73.92,-82.66 -74.32,-82.30 -74.71,-81.97 -75.09,-81.68 -75.46,-81.42 -75.81,-81.19 -76.16,-80.99 -76.50,-80.82 -76.82,-80.69 -77.13,-80.59 -77.44,-80.51 -77.73,-80.47 -78.01,-80.47 -78.28,-80.49"/>
    </edge>
    <edge id=":15_0" function="internal">
        <lane id=":15_0_0" index="0" disallow="bus truck rail_fast" speed="12.93" length="8.28" width="2.50" shape="-76.77,-79.80 -76.68,-80.40 -76.58,-80.94 -76.49,-81.43 -76.39,-81.88 -76.29,-82.28 -76.19,-82.65 -76.07,-82.99 -75.94,-83.32 -75.81,-83.62 -75.65,-83.91 -75.48,-84.20 -75.29,-84.49 -75.08,-84.79 -74.84,-85.10 -74.58,-85.43 -74.28,-85.79 -73.96,-86.18 -73.60,-86.60 -73.21,-87.07"/>
    </edge>
    <edge id=":15_1" function="internal">
        <lane id=":15_1_0" index="0" disallow="bus truck rail_fast" speed="36.11" length="6.37" width="2.50" shape="-77.79,-82.66 -77.42,-82.96 -77.09,-83.24 -76.79,-83.48 -76.52,-83.71 -76.27,-83.91 -76.04,-84.10 -75.83,-84.28 -75.63,-84.46 -75.44,-84.63 -75.26,-84.80 -75.08,-84.97 -74.89,-85.16 -74.70,-85.36 -74.50,-85.58 -74.28,-85.82 -74.05,-86.08 -73.80,-86.37 -73.52,-86.70 -73.21,-87.07"/>
    </edge>
    <edge id=":15_2" function="internal">
        <lane id=":15_2_0" index="0" disallow="rail_fast" speed="36.11" length="8.90" width="2.50" shape="-78.86,-80.20 -73.21,-87.07"/>
    </edge>
    <edge id=":17_0" function="internal">
        <lane id=":17_0_0" index="0" disallow="bus truck rail_fast" speed="36.11" length="6.82" width="2.50" shape="-105.49,59.25 -105.82,58.86 -106.12,58.51 -106.39,58.19 -106.63,57.90 -106.85,57.64 -107.06,57.40 -107.26,57.17 -107.44,56.96 -107.63,56.76 -107.81,56.56 -108.00,56.37 -108.20,56.17 -108.41,55.96 -108.64,55.74 -108.89,55.51 -109.17,55.26 -109.48,54.99 -109.83,54.68 -110.22,54.35"/>
    </edge>
    <edge id=":17_1" function="internal">
        <lane id=":17_1_0" index="0" disallow="bus truck rail_fast" speed="36.11" length="9.28" width="2.50" shape="-103.04,60.24 -110.22,54.35"/>
    </edge>
    <edge id=":17_2" function="internal">
        <lane id=":17_2_0" index="0" disallow="bus truck rail_fast" speed="12.79" length="8.76" width="2.50" shape="-102.57,58.17 -103.20,58.07 -103.78,57.97 -104.30,57.88 -104.77,57.78 -105.19,57.67 -105.59,57.56 -105.95,57.43 -106.29,57.30 -106.61,57.15 -106.92,56.98 -107.22,56.80 -107.53,56.59 -107.84,56.36 -108.16,56.10 -108.51,55.82 -108.88,55.50 -109.29,55.15 -109.73,54.77 -110.22,54.35"/>
    </edge>
    <edge id=":18_0" function="internal">
        <lane id=":18_0_0" index="0" disallow="bus truck rail_fast" speed="36.11" length="9.12" width="2.50" shape="-150.59,26.86 -159.15,23.72"/>
    </edge>
    <edge id=":18_1" function="internal">
        <lane id=":18_1_0" index="0" disallow="bus truck rail_fast" speed="7.52" length="9.90" width="2.50" shape="-150.59,26.86 -151.35,26.55 -152.07,26.23 -152.75,25.91 -153.39,25.60 -153.98,25.28 -154.53,24.96 -155.03,24.64 -155.49,24.33 -155.91,24.01 -156.29,23.69 -156.62,23.37 -156.92,23.05 -157.16,22.73 -157.37,22.41 -157.53,22.09 -157.65,21.77 -157.72,21.45 -157.76,21.13 -157.74,20.81"/>
    </edge>
    <edge id=":19_0" function="internal">
        <lane id=":19_0_0" index="0" disallow="bus truck rail_fast" speed="27.84" length="6.47" width="2.50" shape="-155.23,21.28 -154.86,21.59 -154.52,21.86 -154.22,22.11 -153.94,22.33 -153.68,22.53 -153.44,22.71 -153.21,22.87 -152.98,23.02 -152.76,23.16 -152.54,23.29 -152.31,23.41 -152.07,23.53 -151.81,23.65 -151.54,23.77 -151.24,23.90 -150.91,24.04 -150.54,24.19 -150.14,24.35 -149.69,24.53"/>
    </edge>
    <edge id=":19_1" function="internal">
        <lane id=":19_1_0" index="0" disallow="bus truck rail_fast" speed="36.11" length="9.00" width="2.50" shape="-158.14,21.43 -149.69,24.53"/>
    </edge>
    <edge id=":2_0" function="internal">
        <lane id=":2_0_0" index="0" disallow="bus truck rail_fast" speed="6.56" length="6.76" width="2.50" shape="-33.07,-29.78 -32.95,-29.93 -32.79,-30.13 -32.60,-30.37 -32.38,-30.64 -32.14,-30.95 -31.88,-31.29 -31.60,-31.64 -31.33,-32.01 -31.05,-32.39 -30.78,-32.77 -30.53,-33.15 -30.29,-33.52 -30.07,-33.88 -29.89,-34.22 -29.74,-34.54 -29.63,-34.82 -29.57,-35.07 -29.56,-35.28 -29.61,-35.44"/>
    </edge>
    <edge id=":2_1" function="internal">
        <lane id=":2_1_0" index="0" disallow="bus truck rail_fast" speed="9.35" length="7.70" width="2.50" shape="-33.07,-29.78 -32.73,-30.22 -32.43,-30.64 -32.16,-31.03 -31.92,-31.40 -31.70,-31.75 -31.49,-32.08 -31.29,-32.38 -31.09,-32.67 -30.89,-32.93 -30.68,-33.17 -30.46,-33.39 -30.22,-33.60 -29.95,-33.78 -29.65,-33.95 -29.32,-34.10 -28.94,-34.23 -28.51,-34.35 -28.03,-34.45 -27.49,-34.54"/>
    </edge>
    <edge id=":20_0" function="internal">
        <lane id=":20_0_0" index="0" disallow="bus truck rail_fast" speed="6.18" length="7.46" width="2.50" shape="-108.39,52.63 -107.85,53.08 -107.34,53.51 -106.85,53.90 -106.38,54.27 -105.94,54.60 -105.52,54.91 -105.12,55.18 -104.74,55.43 -104.39,55.64 -104.06,55.82 -103.75,55.98 -103.47,56.10 -103.21,56.20 -102.97,56.26 -102.75,56.29 -102.56,56.30 -102.39,56.27 -102.24,56.21 -102.12,56.13"/>
    </edge>
    <edge id=":20_1" function="internal">
        <lane id=":20_1_0" index="0" disallow="bus truck rail_fast" speed="36.11" length="8.84" width="2.50" shape="-108.39,52.63 -101.55,58.23"/>
    </edge>
    <edge id=":20_2" function="internal">
        <lane id=":20_2_0" index="0" disallow="bus truck rail_fast" speed="8.53" length="8.68" width="2.50" shape="-108.39,52.63 -107.86,53.09 -107.36,53.54 -106.89,53.98 -106.46,54.40 -106.05,54.82 -105.67,55.22 -105.32,55.62 -105.00,56.00 -104.71,56.37 -104.45,56.73 -104.22,57.08 -104.02,57.42 -103.85,57.75 -103.71,58.06 -103.60,58.37 -103.52,58.66 -103.46,58.94 -103.44,59.21 -103.45,59.47"/>
    </edge>
    <edge id=":22_0" function="internal">
        <lane id=":22_0_0" index="0" disallow="bus truck rail_fast" speed="23.80" length="6.61" width="2.28" shape="143.50,45.19 143.11,44.89 142.76,44.62 142.44,44.37 142.14,44.15 141.87,43.96 141.62,43.78 141.38,43.62 141.15,43.48 140.92,43.34 140.69,43.22 140.45,43.10 140.20,42.99 139.94,42.87 139.65,42.76 139.34,42.64 138.99,42.51 138.61,42.38 138.19,42.23 137.73,42.07"/>
    </edge>
    <edge id=":22_1" function="internal">