<!-- generated on 2020-12-18 16:21:43.133899 by ipykernel_launcher.py v1_2_0+5214-53edc58fcd
-->
<edges>
	<edge from="1" function="normal" id="358" length="106.87628028391407" numLanes="1" priority="1" speed="36.11111111111111" spreadType="center" to="2">
		<lane allow="moped bicycle pedestrian custom1 trailer evehicle rail_urban ship private truck vip custom2 authority delivery rail_electric taxi tram army hov coach motorcycle passenger bus rail emergency" index="0" length="106.87628028391407" shape="-98.49875,52.66265 -65.2859,10.81035 -32.061099999999996,-31.0546" speed="36.11111111111111" width="2.499455720752017"/>
	</edge>
	<edge from="3" function="normal" id="359" length="106.87325156654975" numLanes="1" priority="1" speed="36.11111111111111" spreadType="center" to="4">
		<lane allow="moped bicycle pedestrian custom1 trailer evehicle rail_urban ship private truck vip custom2 authority delivery rail_electric taxi tram army hov coach motorcycle passenger bus rail emergency" index="0" length="106.87325156654975" shape="-30.10385,-29.500999999999998 -63.327749999999995,12.3645 -96.5394,54.21405" speed="36.11111111111111" width="2.497658409390686"/>
	</edge>
	<edge from="5" function="normal" id="360" length="27.81922399860752" numLanes="1" priority="1" speed="36.11111111111111" spreadType="center" to="6">
		<lane allow="moped bicycle pedestrian custom1 trailer evehicle rail_urban ship private truck vip custom2 authority delivery rail_electric taxi tram army hov coach motorcycle passenger bus rail emergency" index="0" length="27.81922399860752" shape="-117.49735,-119.14345 -109.585,-130.57580000000002 -101.6649,-142.01794999999998" speed="36.11111111111111" width="2.4997515276523092"/>
	</edge>
	<edge from="7" function="normal" id="361" length="27.830042063762242" numLanes="1" priority="1" speed="36.11111111111111" spreadType="center" to="8">
		<lane allow="moped bicycle pedestrian custom1 trailer evehicle rail_urban ship private truck vip custom2 authority delivery rail_electric taxi tram army hov coach motorcycle passenger bus rail emergency" index="0" length="27.830042063762242" shape="-99.6093,-140.59505000000001 -107.5293,-129.1531 -115.44855,-117.71209999999999" speed="36.11111111111111" width="2.4990114785650657"/>
	</edge>
	<edge from="9" function="normal" id="362" length="50.442483956813355" numLanes="1" priority="1" speed="36.11111111111111" spreadType="center" to="10">
		<lane allow="moped bicycle pedestrian custom1 trailer evehicle rail_urban ship private truck vip custom2 authority delivery rail_electric taxi tram army hov coach motorcycle passenger bus rail emergency" index="0" length="50.442483956813355" shape="-127.5104,-115.79735 -147.52215,-131.14685 -167.53505,-146.49705" speed="36.11111111111111" width="2.4991948323410105"/>
	</edge>
	<edge from="11" function="normal" id="363" length="50.42053956705905" numLanes="1" priority="1" speed="36.11111111111111" spreadType="center" to="12">
		<lane allow="moped bicycle pedestrian custom1 trailer evehicle rail_urban ship private truck vip custom2 authority delivery rail_electric taxi tram army hov coach motorcycle passenger bus rail emergency" index="0" length="50.42053956705905" shape="-166.01355,-148.4808 -146.00065,-133.13049999999998 -126.0067,-117.79395" speed="36.11111111111111" width="2.499926240911918"/>
	</edge>
	<edge from="13" function="normal" id="364" length="139.0475583191791" numLanes="1" priority="1" speed="36.11111111111111" spreadType="center" to="14">
		<lane allow="moped bicycle pedestrian custom1 trailer evehicle rail_urban ship private truck vip custom2 authority delivery rail_electric taxi tram army hov coach motorcycle passenger bus rail emergency" index="0" length="139.0475583191791" shape="16.7682,-190.88045 -27.8036,-137.5259 -72.37725,-84.1691" speed="36.11111111111111" width="2.4980006024819117"/>
	</edge>
	<edge from="15" function="normal" id="365" length="139.05369677465393" numLanes="1" priority="1" speed="36.11111111111111" spreadType="center" to="16">
		<lane allow="moped bicycle pedestrian custom1 trailer evehicle rail_urban ship private truck vip custom2 authority delivery rail_electric taxi tram army hov coach motorcycle passenger bus rail emergency" index="0" length="139.05369677465393" shape="-74.2964,-85.76975 -29.724449999999997,-139.126 14.8524,-192.4863" speed="36.11111111111111" width="2.500000073999996"/>
	</edge>
	<edge from="17" function="normal" id="366" length="52.52554061516801" numLanes="1" priority="1" speed="36.11111111111111" spreadType="center" to="18">
		<lane allow="moped bicycle pedestrian custom1 trailer evehicle rail_urban ship private vip custom2 authority delivery rail_electric taxi tram army hov coach motorcycle passenger rail emergency" index="0" length="52.52554061516801" shape="-108.83255,55.540549999999996 -117.94444999999999,47.7136 -125.25145,41.63565 -130.83495,37.40885 -136.23115,33.7808 -140.54955,31.25795 -145.05825,29.0931 -152.01565,26.2898" speed="36.11111111111111" width="2.4983051895234913"/>
	</edge>
	<edge from="19" function="normal" id="367" length="53.329881839665035" numLanes="1" priority="1" speed="36.11111111111111" spreadType="center" to="20">
		<lane allow="moped bicycle pedestrian custom1 trailer evehicle rail_urban ship private vip custom2 authority delivery rail_electric taxi tram army hov coach motorcycle passenger rail emergency" index="0" length="53.329881839665035" shape="-151.09545,23.96575 -144.0506,26.80585 -139.42455,29.0259 -134.99059999999997,31.6085 -129.48565,35.30095 -123.8024,39.594350000000006 -116.40385,45.74145 -107.22475,53.6273" speed="36.11111111111111" width="2.499934649145851"/>
	</edge>
	<edge from="21" function="normal" id="368" length="23.173459140631977" numLanes="1" priority="1" speed="36.11111111111111" spreadType="center" to="22">
		<lane allow="moped bicycle pedestrian custom1 trailer evehicle rail_urban ship private truck vip custom2 authority delivery rail_electric taxi tram army hov coach motorcycle passenger bus rail emergency" index="0" length="23.173459140631977" shape="160.61034999999998,58.43815 151.4484,51.3444 142.28715,44.2512" speed="36.11111111111111" width="2.4990149679423728"/>
	</edge>
	<edge from="23" function="normal" id="369" length="23.164676998659033" numLanes="1" priority="1" speed="36.11111111111111" spreadType="center" to="24">
		<lane allow="moped bicycle pedestrian custom1 trailer evehicle rail_urban ship private truck vip custom2 authority delivery rail_electric taxi tram army hov coach motorcycle passenger bus rail emergency" index="0" length="23.164676998659033" shape="143.82415,42.2804 152.97885,49.367599999999996 162.14085,56.4614" speed="36.11111111111111" width="2.4997466211598374"/>
	</edge>
	<edge from="25" function="normal" id="370" length="0.7377805832297557" numLanes="1" priority="1" speed="36.11111111111111" spreadType="center" to="26">
		<lane allow="moped bicycle pedestrian custom1 trailer evehicle rail_urban ship private vip custom2 authority delivery rail_electric taxi tram army hov coach motorcycle passenger rail emergency" index="0" length="0.7377805832297557" shape="-119.54065,-109.77289999999999 -119.83735,-109.9125 -120.07765,-110.24455" speed="36.11111111111111" width="2.496406363154848"/>
	</edge>
	<edge from="27" function="normal" id="371" length="0.45890378787776065" numLanes="1" priority="1" speed="36.11111111111111" spreadType="center" to="28">
		<lane allow="moped bicycle pedestrian custom1 trailer evehicle rail_urban ship private vip custom2 authority delivery rail_electric taxi tram army hov coach motorcycle passenger rail emergency" index="0" length="0.45890378787776065" shape="-118.42645,-111.99565 -118.31645,-111.89670000000001 -118.10669999999999,-111.66714999999999" speed="36.11111111111111" width="2.22999971748877"/>
	</edge>
	<edge from="29" function="normal" id="372" length="82.63302271728313" numLanes="1" priority="1" speed="36.11111111111111" spreadType="center" to="30">
		<lane allow="moped bicycle pedestrian custom1 trailer evehicle rail_urban ship private truck vip custom2 authority delivery rail_electric taxi tram army hov coach motorcycle passenger bus rail emergency" index="0" length="82.63302271728313" shape="-81.89840000000001,-72.54395 -107.75645,-40.33585 -133.6317,-8.10885" speed="36.11111111111111" width="2.500017651937683"/>
	</edge>
	<edge from="31" function="normal" id="373" length="82.61054919564822" numLanes="1" priority="1" speed="36.11111111111111" spreadType="center" to="32">
		<lane allow="moped bicycle pedestrian custom1 trailer evehicle rail_urban ship private truck vip custom2 authority delivery rail_electric taxi tram army hov coach motorcycle passenger bus rail emergency" index="0" length="82.61054919564822" shape="-135.56485,-9.69305 -109.70580000000001,-41.9011 -83.84565,-74.11064999999999" speed="36.11111111111111" width="2.498454005980503"/>
	</edge>
	<edge from="33" function="normal" id="374" length="33.5678777644085" numLanes="1" priority="1" speed="36.11111111111111" spreadType="center" to="34">
		<lane allow="moped bicycle pedestrian custom1 trailer evehicle rail_urban ship private truck vip custom2 authority delivery rail_electric taxi tram army hov coach motorcycle passenger bus rail emergency" index="0" length="33.5678777644085" shape="-142.99935,-77.65 -133.63915,-89.6901 -122.50635,-104.23615000000001" speed="36.11111111111111" width="2.499940899301421"/>
	</edge>
	<edge from="35" function="normal" id="375" length="33.60651442399652" numLanes="1" priority="1" speed="36.11111111111111" spreadType="center" to="36">
		<lane allow="moped bicycle pedestrian custom1 trailer evehicle rail_urban ship private truck vip custom2 authority delivery rail_electric taxi tram army hov coach motorcycle passenger bus rail emergency" index="0" length="33.60651442399652" shape="-120.50715,-102.73605 -131.65365,-88.17085 -141.02315,-76.11885000000001" speed="36.11111111111111" width="2.4989875749991195"/>
	</edge>
	<edge from="37" function="normal" id="376" length="125.84497084929484" numLanes="1" priority="1" speed="36.11111111111111" spreadType="center" to="38">
		<lane allow="moped bicycle pedestrian custom1 trailer evehicle rail_urban ship private truck vip custom2 authority delivery rail_electric taxi tram army hov coach motorcycle passenger bus rail emergency" index="0" length="125.84497084929484" shape="0.30629999999999996,144.24450000000002 -32.90805,116.75 -97.3416,64.86445" speed="36.11111111111111" width="2.4979960068022504"/>
	</edge>
	<edge from="39" function="normal" id="377" length="125.87683679624894" numLanes="1" priority="1" speed="36.11111111111111" spreadType="center" to="40">
		<lane allow="moped bicycle pedestrian custom1 trailer evehicle rail_urban ship private truck vip custom2 authority delivery rail_electric taxi tram army hov coach motorcycle passenger bus rail emergency" index="0" length="125.87683679624894" shape="-95.77305,62.918949999999995 -31.325249999999997,114.8149 1.9001000000000001,142.31844999999998" speed="36.11111111111111" width="2.4999110484175215"/>
	</edge>
	<edge from="41" function="normal" id="378" length="13.056150201330507" numLanes="1" priority="1" speed="36.11111111111111" spreadType="center" to="42">
		<lane allow="moped bicycle pedestrian custom1 trailer evehicle rail_urban ship private truck vip custom2 authority delivery rail_electric taxi tram army hov coach motorcycle passenger bus rail emergency" index="0" length="13.056150201330507" shape="-144.91495,5.9435 -149.03565,11.02045 -153.14315,16.08055" speed="36.11111111111111" width="2.499188400261164"/>
	</edge>
	<edge from="43" function="normal" id="379" length="13.02086640042101" numLanes="1" priority="1" speed="36.11111111111111" spreadType="center" to="44">
		<lane allow="moped bicycle pedestrian custom1 trailer evehicle rail_urban ship private truck vip custom2 authority delivery rail_electric taxi tram army hov coach motorcycle passenger bus rail emergency" index="0" length="13.02086640042101" shape="-155.07909999999998,14.500350000000001 -150.9773,9.44565 -146.8735,4.3904" speed="36.11111111111111" width="2.4997007520901326"/>
	</edge>
	<edge from="45" function="normal" id="380" length="22.01301541649321" numLanes="1" priority="1" speed="36.11111111111111" spreadType="center" to="46">
		<lane allow="moped bicycle pedestrian custom1 trailer evehicle rail_urban ship private truck vip custom2 authority delivery rail_electric taxi tram army hov coach motorcycle passenger bus rail emergency" index="0" length="22.01301541649321" shape="-147.60655,-4.40665 -156.13965000000002,-11.31985 -164.70925,-18.2656" speed="36.11111111111111" width="2.499908642330765"/>
	</edge>
	<edge from="47" function="normal" id="381" length="22.05743786643096" numLanes="1" priority="1" speed="36.11111111111111" spreadType="center" to="48">
		<lane allow="moped bicycle pedestrian custom1 trailer evehicle rail_urban ship private truck vip custom2 authority delivery rail_electric taxi tram army hov coach motorcycle passenger bus rail emergency" index="0" length="22.05743786643096" shape="-163.13510000000002,-20.2078 -154.5655,-13.262 -145.99925000000002,-6.3192" speed="36.11111111111111" width="2.497214161821118"/>
	</edge>
	<edge from="49" function="normal" id="382" length="92.53455718867124" numLanes="1" priority="1" speed="36.11111111111111" spreadType="center" to="50">
		<lane allow="moped bicycle pedestrian custom1 trailer evehicle rail_urban ship private truck vip custom2 authority delivery rail_electric taxi tram army hov coach motorcycle passenger bus rail emergency" index="0" length="92.53455718867124" shape="200.56119999999999,-38.3969 171.60555,-2.2946999999999997 142.66475,33.7879" speed="36.11111111111111" width="2.500000335999996"/>
	</edge>
	<edge from="51" function="normal" id="383" length="92.55784976178433" numLanes="1" priority="1" speed="36.11111111111111" spreadType="center" to="52">
		<lane allow="moped bicycle pedestrian custom1 trailer evehicle rail_urban ship private truck vip custom2 authority delivery rail_electric taxi tram army hov coach motorcycle passenger bus rail emergency" index="0" length="92.55784976178433" shape="140.70045,32.2423 169.6553,-3.8588500000000003 198.611,-39.96105" speed="36.11111111111111" width="2.4991749858703365"/>
	</edge>
	<edge from="53" function="normal" id="384" length="54.99635104645048" numLanes="1" priority="1" speed="36.11111111111111" spreadType="center" to="54">
		<lane allow="moped bicycle pedestrian custom1 trailer evehicle rail_urban ship private vip custom2 authority delivery rail_electric taxi tram army hov coach motorcycle passenger rail emergency" index="0" length="54.99635104645048" shape="65.98745,49.545 54.85165,63.0501 46.010099999999994,73.25305 42.56615,77.5411 39.43185,82.06015 38.40285,83.77425 37.825500000000005,85.15685 37.51815,86.62305 37.46375,88.62 38.09105,94.58574999999999" speed="36.11111111111111" width="2.4999468994360665"/>
	</edge>
	<edge from="55" function="normal" id="385" length="56.906977951700895" numLanes="1" priority="1" speed="36.11111111111111" spreadType="center" to="56">
		<lane allow="moped bicycle pedestrian custom1 trailer evehicle rail_urban ship private vip custom2 authority delivery rail_electric taxi tram army hov coach motorcycle passenger rail emergency" index="0" length="56.906977951700895" shape="35.59935,94.77865 34.9644,88.62934999999999 35.028099999999995,86.42654999999999 35.3519,84.72845000000001 35.959649999999996,83.10155 37.02675,81.1852 40.230000000000004,76.49725000000001 43.7502,72.05605 52.74545,61.675 64.05825,47.956450000000004" speed="36.11111111111111" width="2.4979896917321276"/>
	</edge>
	<edge from="57" function="normal" id="386" length="18.40469929944284" numLanes="1" priority="1" speed="36.11111111111111" spreadType="center" to="58">
		<lane allow="moped bicycle pedestrian custom1 trailer evehicle rail_urban ship private truck vip custom2 authority delivery rail_electric taxi tram army hov coach motorcycle passenger bus rail emergency" index="0" length="18.40469929944284" shape="-165.95565,21.60095 -174.87315,19.36495 -183.80765000000002,17.12445" speed="36.11111111111111" width="2.4989242685603767"/>
	</edge>
	<edge from="59" function="normal" id="387" length="18.392718911213006" numLanes="1" priority="1" speed="36.11111111111111" spreadType="center" to="60">
		<lane allow="moped bicycle pedestrian custom1 trailer evehicle rail_urban ship private truck vip custom2 authority delivery rail_electric taxi tram army hov coach motorcycle passenger bus rail emergency" index="0" length="18.392718911213006" shape="-183.19955,14.69955 -174.26505,16.94005 -165.35944999999998,19.17425" speed="36.11111111111111" width="2.4995841774183187"/>
	</edge>
	<edge from="61" function="normal" id="388" length="109.8593991861595" numLanes="1" priority="1" speed="36.11111111111111" spreadType="center" to="62">
		<lane allow="moped bicycle pedestrian custom1 trailer evehicle rail_urban ship private truck vip custom2 authority delivery rail_electric taxi tram army hov coach motorcycle passenger bus rail emergency" index="0" length="109.8593991861595" shape="63.368300000000005,39.0463 20.874000000000002,4.2395 -21.6203,-30.5671" speed="36.11111111111111" width="2.498926273422246"/>
	</edge>
	<edge from="63" function="normal" id="389" length="109.90257542396614" numLanes="1" priority="1" speed="36.11111111111111" spreadType="center" to="64">
		<lane allow="moped bicycle pedestrian custom1 trailer evehicle rail_urban ship private truck vip custom2 authority delivery rail_electric taxi tram army hov coach motorcycle passenger bus rail emergency" index="0" length="109.90257542396614" shape="-20.0527,-32.513799999999996 22.45795,2.3053 64.96935,37.1269" speed="36.11111111111111" width="2.500001809999345"/>
	</edge>
	<edge from="65" function="normal" id="390" length="34.076989926528526" numLanes="1" priority="1" speed="36.11111111111111" spreadType="center" to="66">
		<lane allow="moped bicycle pedestrian custom1 trailer evehicle rail_urban ship private truck vip custom2 authority delivery rail_electric taxi tram army hov coach motorcycle passenger bus rail emergency" index="0" length="34.076989926528526" shape="100.95845,69.8275 87.77250000000001,59.0274 74.5964,48.233900000000006" speed="36.11111111111111" width="2.4995026645314793"/>
	</edge>
	<edge from="67" function="normal" id="391" length="34.10148557350986" numLanes="1" priority="1" speed="36.11111111111111" spreadType="center" to="68">
		<lane allow="moped bicycle pedestrian custom1 trailer evehicle rail_urban ship private truck vip custom2 authority delivery rail_electric taxi tram army hov coach motorcycle passenger bus rail emergency" index="0" length="34.10148557350986" shape="76.16,46.2841 89.35655,57.0933 102.5411,67.8931" speed="36.11111111111111" width="2.4989878351044457"/>
	</edge>
	<edge from="69" function="normal" id="392" length="32.85918848041098" numLanes="1" priority="1" speed="36.11111111111111" spreadType="center" to="70">
		<lane allow="moped bicycle pedestrian custom1 trailer evehicle rail_urban ship private vip custom2 authority delivery rail_electric taxi tram army hov coach motorcycle passenger rail emergency" index="0" length="32.85918848041098" shape="-163.0975,-32.67295 -162.69065,-32.359049999999996 -159.27530000000002,-30.072699999999998 -157.6689,-28.79335 -156.6279,-27.6588 -156.05415,-26.8071 -155.80795,-26.3562 -155.437,-25.4 -155.2969,-24.38395 -155.43959999999998,-22.852 -155.6528,-21.84675 -155.84109999999998,-20.8369 -155.81385,-19.815649999999998 -155.62415,-19.3393 -154.62405,-17.5456 -153.3921,-15.9022 -151.5969,-14.06685 -149.1975,-12.13305 -144.072,-8.706050000000001" speed="36.11111111111111" width="2.4977699673909104"/>
	</edge>
	<edge from="71" function="normal" id="393" length="32.94198754850735" numLanes="1" priority="1" speed="36.11111111111111" spreadType="center" to="72">
		<lane allow="moped bicycle pedestrian custom1 trailer evehicle rail_urban ship private vip custom2 authority delivery rail_electric taxi tram army hov coach motorcycle passenger rail emergency" index="0" length="32.94198754850735" shape="-145.4341,-6.61065 -150.6334,-10.0872 -153.1402,-12.09565 -155.0623,-14.01835 -156.4279,-15.76005 -157.55715,-17.6366 -157.82365,-18.2008 -158.14305000000002,-19.48235 -158.21429999999998,-20.75215 -158.1351,-21.91105 -157.9617,-23.4219 -157.92685,-24.246499999999997 -158.00900000000001,-24.97495 -158.06255,-25.17295 -158.436,-25.87925 -159.2822,-26.881700000000002 -160.7736,-28.07145 -164.19215,-30.36135 -164.6343,-30.7011" speed="36.11111111111111" width="2.500044063611681"/>
	</edge>
	<edge from="73" function="normal" id="394" length="50.115555367113856" numLanes="1" priority="1" speed="36.11111111111111" spreadType="center" to="74">
		<lane allow="moped bicycle pedestrian custom1 trailer evehicle rail_urban ship private truck vip custom2 authority delivery rail_electric taxi tram army hov coach motorcycle passenger bus rail emergency" index="0" length="50.115555367113856" shape="185.2716,139.01069999999999 165.9154,123.0986 146.55810000000002,107.18565000000001" speed="36.11111111111111" width="2.4990466362194956"/>
	</edge>
	<edge from="75" function="normal" id="395" length="50.13903632148484" numLanes="1" priority="1" speed="36.11111111111111" spreadType="center" to="76">
		<lane allow="moped bicycle pedestrian custom1 trailer evehicle rail_urban ship private truck vip custom2 authority delivery rail_electric taxi tram army hov coach motorcycle passenger bus rail emergency" index="0" length="50.13903632148484" shape="148.1271,105.24005 167.503,121.1674 186.8592,137.07945" speed="36.11111111111111" width="2.5000014399995654"/>
	</edge>
	<edge from="77" function="normal" id="396" length="26.673037537350226" numLanes="1" priority="1" speed="36.11111111111111" spreadType="center" to="78">
		<lane allow="moped bicycle pedestrian custom1 trailer evehicle rail_urban ship private truck vip custom2 authority delivery rail_electric taxi tram army hov coach motorcycle passenger bus rail emergency" index="0" length="26.673037537350226" shape="130.54205,48.614549999999994 121.9564,58.807249999999996 113.3579,69.01445" speed="36.11111111111111" width="2.4979423231932314"/>
	</edge>
	<edge from="79" function="normal" id="397" length="26.691069261539035" numLanes="1" priority="1" speed="36.11111111111111" spreadType="center" to="80">
		<lane allow="moped bicycle pedestrian custom1 trailer evehicle rail_urban ship private truck vip custom2 authority delivery rail_electric taxi tram army hov coach motorcycle passenger bus rail emergency" index="0" length="26.691069261539035" shape="111.44685000000001,67.4042 120.04435000000001,57.196600000000004 128.64225,46.9902" speed="36.11111111111111" width="2.4992633414668304"/>
	</edge>
	<edge from="81" function="normal" id="398" length="52.769459543842025" numLanes="1" priority="1" speed="36.11111111111111" spreadType="center" to="82">
		<lane allow="moped bicycle pedestrian custom1 trailer evehicle rail_urban ship private truck vip custom2 authority delivery rail_electric taxi tram army hov coach motorcycle passenger bus rail emergency" index="0" length="52.769459543842025" shape="-32.817099999999996,-39.8505 -53.0204,-56.80265 -73.24010000000001,-73.77095" speed="36.11111111111111" width="2.499872286737869"/>
	</edge>
	<edge from="83" function="normal" id="399" length="52.79746001013287" numLanes="1" priority="1" speed="36.11111111111111" spreadType="center" to="84">
		<lane allow="moped bicycle pedestrian custom1 trailer evehicle rail_urban ship private truck vip custom2 authority delivery rail_electric taxi tram army hov coach motorcycle passenger bus rail emergency" index="0" length="52.79746001013287" shape="-71.6394,-75.68995000000001 -51.4134,-58.717749999999995 -31.194699999999997,-41.7518" speed="36.11111111111111" width="2.4980591766409437"/>
	</edge>
	<edge from="85" function="normal" id="400" length="4.335521489338859" numLanes="1" priority="1" speed="36.11111111111111" spreadType="center" to="86">
		<lane allow="moped bicycle pedestrian custom1 trailer evehicle rail_urban ship private truck vip custom2 authority delivery rail_electric taxi tram army hov coach motorcycle passenger bus rail emergency" index="0" length="4.335521489338859" shape="148.64945,67.90235 149.87265000000002,66.11495 151.09785,64.32435" speed="36.11111111111111" width="2.4989408836545053"/>
	</edge>
	<edge from="87" function="normal" id="401" length="4.3721501399622476" numLanes="1" priority="1" speed="36.11111111111111" spreadType="center" to="88">
		<lane allow="moped bicycle pedestrian custom1 trailer evehicle rail_urban ship private truck vip custom2 authority delivery rail_electric taxi tram army hov coach motorcycle passenger bus rail emergency" index="0" length="4.3721501399622476" shape="153.1808,65.70545 151.93574999999998,67.52685 150.71255000000002,69.31425" speed="36.11111111111111" width="2.4999686438033524"/>
	</edge>
	<edge from="89" function="normal" id="402" length="34.59205929856732" numLanes="1" priority="1" speed="36.11111111111111" spreadType="center" to="90">
		<lane allow="moped bicycle pedestrian custom1 trailer evehicle rail_urban ship private truck vip custom2 authority delivery rail_electric taxi tram army hov coach motorcycle passenger bus rail emergency" index="0" length="34.59205929856732" shape="-84.72455,-82.9783 -98.4479,-93.5057 -112.1712,-104.03280000000001" speed="36.11111111111111" width="2.497950279729369"/>
	</edge>
	<edge from="91" function="normal" id="403" length="34.59417825689877" numLanes="1" priority="1" speed="36.11111111111111" spreadType="center" to="92">
		<lane allow="moped bicycle pedestrian custom1 trailer evehicle rail_urban ship private truck vip custom2 authority delivery rail_electric taxi tram army hov coach motorcycle passenger bus rail emergency" index="0" length="34.59417825689877" shape="-110.64945,-106.01505 -96.9263,-95.4893 -83.20105000000001,-84.95935" speed="36.11111111111111" width="2.499987103966739"/>
	</edge>
	<edge from="93" function="normal" id="404" length="13.223033882104854" numLanes="1" priority="1" speed="36.11111111111111" spreadType="center" to="94">
		<lane allow="moped bicycle pedestrian custom1 trailer evehicle rail_urban ship private truck vip custom2 authority delivery rail_electric taxi tram army hov coach motorcycle passenger bus rail emergency" index="0" length="13.223033882104854" shape="149.57725,55.774699999999996 144.41725000000002,51.6171 139.28105,47.4779" speed="36.11111111111111" width="2.4992264823340884"/>
	</edge>
	<edge from="95" function="normal" id="405" length="13.2968825956189" numLanes="1" priority="1" speed="36.11111111111111" spreadType="center" to="96">
		<lane allow="moped bicycle pedestrian custom1 trailer evehicle rail_urban ship private truck vip custom2 authority delivery rail_electric taxi tram army hov coach motorcycle passenger bus rail emergency" index="0" length="13.2968825956189" shape="140.81459999999998,45.5064 145.98565000000002,49.67025 151.1695,53.84805" speed="36.11111111111111" width="2.498656935235404"/>
	</edge>
	<edge from="97" function="normal" id="406" length="35.21194411194569" numLanes="1" priority="1" speed="36.11111111111111" spreadType="center" to="98">
		<lane allow="moped bicycle pedestrian custom1 trailer evehicle rail_urban ship private truck vip custom2 authority delivery rail_electric taxi tram army hov coach motorcycle passenger bus rail emergency" index="0" length="35.21194411194569" shape="-113.4956,-116.3041 -102.7894,-130.28035 -92.0828,-144.25715000000002" speed="36.11111111111111" width="2.499378130655708"/>
	</edge>
	<edge from="99" function="normal" id="407" length="35.19765770742558" numLanes="1" priority="1" speed="36.11111111111111" spreadType="center" to="100">
		<lane allow="moped bicycle pedestrian custom1 trailer evehicle rail_urban ship private truck vip custom2 authority delivery rail_electric taxi tram army hov coach motorcycle passenger bus rail emergency" index="0" length="35.19765770742558" shape="-90.09815,-142.7369 -100.80494999999999,-128.75985 -111.5026,-114.79544999999999" speed="36.11111111111111" width="2.49999499599499"/>
	</edge>
	<edge from="101" function="normal" id="408" length="0.23513242356111777" numLanes="1" priority="1" speed="36.11111111111111" spreadType="center" to="102">
		<lane allow="moped bicycle pedestrian custom1 trailer evehicle rail_urban ship private vip custom2 authority delivery rail_electric taxi tram army hov coach motorcycle passenger rail emergency" index="0" length="0.23513242356111777" shape="136.72140000000002,41.21655 136.62324999999998,41.3241 136.62805,41.234700000000004" speed="36.11111111111111" width="2.2849210599055763"/>
	</edge>
	<edge from="103" function="normal" id="409" length="0.49594390031257274" numLanes="1" priority="1" speed="36.11111111111111" spreadType="center" to="104">
		<lane allow="moped bicycle pedestrian custom1 trailer evehicle rail_urban ship private vip custom2 authority delivery rail_electric taxi tram army hov coach motorcycle passenger rail emergency" index="0" length="0.49594390031257274" shape="134.5983,39.84925 134.67195,39.761250000000004 134.9765,39.532" speed="36.11111111111111" width="2.442673381768419"/>
	</edge>
	<edge from="105" function="normal" id="411" length="218.7669122249919" numLanes="2" priority="1" speed="36.11111111111111" spreadType="center" to="106">
		<lane allow="moped bicycle pedestrian custom1 trailer evehicle rail_urban ship private truck vip custom2 authority delivery rail_electric taxi tram army hov coach motorcycle passenger bus rail emergency" index="0" length="218.7669122249919" shape="194.31715,-52.46655 86.1054,-142.09725 25.656550000000003,-191.795" speed="36.11111111111111" width="2.498966436349239"/>