<!-- generated on 2020-12-18 16:21:43.264449 by ipykernel_launcher.py v1_2_0+5214-53edc58fcd
-->
<nodes>
	<node id="1" type="from" x="-98.49875" y="52.66265"/>
	<node id="2" type="to" x="-32.061099999999996" y="-31.0546"/>
	<node id="3" type="from" x="-30.10385" y="-29.500999999999998"/>
	<node id="4" type="to" x="-96.5394" y="54.21405"/>
	<node id="5" type="from" x="-117.49735" y="-119.14345"/>
	<node id="6" type="to" x="-101.6649" y="-142.01794999999998"/>
	<node id="7" type="from" x="-99.6093" y="-140.59505000000001"/>
	<node id="8" type="to" x="-115.44855" y="-117.71209999999999"/>
	<node id="9" type="from" x="-127.5104" y="-115.79735"/>
	<node id="10" type="to" x="-167.53505" y="-146.49705"/>
	<node id="11" type="from" x="-166.01355" y="-148.4808"/>
	<node id="12" type="to" x="-126.0067" y="-117.79395"/>
	<node id="13" type="from" x="16.7682" y="-190.88045"/>
	<node id="14" type="to" x="-72.37725" y="-84.1691"/>
	<node id="15" type="from" x="-74.2964" y="-85.76975"/>
	<node id="16" type="to" x="14.8524" y="-192.4863"/>
	<node id="17" type="from" x="-108.83255" y="55.540549999999996"/>
	<node id="18" type="to" x="-152.01565" y="26.2898"/>
	<node id="19" type="from" x="-151.09545" y="23.96575"/>
	<node id="20" type="to" x="-107.22475" y="53.6273"/>
	<node id="21" type="from" x="160.61034999999998" y="58.43815"/>
	<node id="22" type="to" x="142.28715" y="44.2512"/>
	<node id="23" type="from" x="143.82415" y="42.2804"/>
	<node id="24" type="to" x="162.14085" y="56.4614"/>
	<node id="25" type="from" x="-119.54065" y="-109.77289999999999"/>
	<node id="26" type="to" x="-120.07765" y="-110.24455"/>
	<node id="27" type="from" x="-118.42645" y="-111.99565"/>
	<node id="28" type="to" x="-118.10669999999999" y="-111.66714999999999"/>
	<node id="29" type="from" x="-81.89840000000001" y="-72.54395"/>
	<node id="30" type="to" x="-133.6317" y="-8.10885"/>
	<node id="31" type="from" x="-135.56485" y="-9.69305"/>
	<node id="32" type="to" x="-83.84565" y="-74.11064999999999"/>
	<node id="33" type="from" x="-142.99935" y="-77.65"/>
	<node id="34" type="to" x="-122.50635" y="-104.23615000000001"/>
	<node id="35" type="from" x="-120.50715" y="-102.73605"/>
	<node id="36" type="to" x="-141.02315" y="-76.11885000000001"/>
	<node id="37" type="from" x="0.30629999999999996" y="144.24450000000002"/>
	<node id="38" type="to" x="-97.3416" y="64.86445"/>
	<node id="39" type="from" x="-95.77305" y="62.918949999999995"/>
	<node id="40" type="to" x="1.9001000000000001" y="142.31844999999998"/>
	<node id="41" type="from" x="-144.91495" y="5.9435"/>
	<node id="42" type="to" x="-153.14315" y="16.08055"/>
	<node id="43" type="from" x="-155.07909999999998" y="14.500350000000001"/>
	<node id="44" type="to" x="-146.8735" y="4.3904"/>
	<node id="45" type="from" x="-147.60655" y="-4.40665"/>
	<node id="46" type="to" x="-164.70925" y="-18.2656"/>
	<node id="47" type="from" x="-163.13510000000002" y="-20.2078"/>
	<node id="48" type="to" x="-145.99925000000002" y="-6.3192"/>
	<node id="49" type="from" x="200.56119999999999" y="-38.3969"/>
	<node id="50" type="to" x="142.66475" y="33.7879"/>
	<node id="51" type="from" x="140.70045" y="32.2423"/>
	<node id="52" type="to" x="198.611" y="-39.96105"/>
	<node id="53" type="from" x="65.98745" y="49.545"/>
	<node id="54" type="to" x="38.09105" y="94.58574999999999"/>
	<node id="55" type="from" x="35.59935" y="94.77865"/>
	<node id="56" type="to" x="64.05825" y="47.956450000000004"/>
	<node id="57" type="from" x="-165.95565" y="21.60095"/>
	<node id="58" type="to" x="-183.80765000000002" y="17.12445"/>
	<node id="59" type="from" x="-183.19955" y="14.69955"/>
	<node id="60" type="to" x="-165.35944999999998" y="19.17425"/>
	<node id="61" type="from" x="63.368300000000005" y="39.0463"/>
	<node id="62" type="to" x="-21.6203" y="-30.5671"/>
	<node id="63" type="from" x="-20.0527" y="-32.513799999999996"/>
	<node id="64" type="to" x="64.96935" y="37.1269"/>
	<node id="65" type="from" x="100.95845" y="69.8275"/>
	<node id="66" type="to" x="74.5964" y="48.233900000000006"/>
	<node id="67" type="from" x="76.16" y="46.2841"/>
	<node id="68" type="to" x="102.5411" y="67.8931"/>
	<node id="69" type="from" x="-163.0975" y="-32.67295"/>
	<node id="70" type="to" x="-144.072" y="-8.706050000000001"/>
	<node id="71" type="from" x="-145.4341" y="-6.61065"/>
	<node id="72" type="to" x="-164.6343" y="-30.7011"/>
	<node id="73" type="from" x="185.2716" y="139.01069999999999"/>
	<node id="74" type="to" x="146.55810000000002" y="107.18565000000001"/>
	<node id="75" type="from" x="148.1271" y="105.24005"/>
	<node id="76" type="to" x="186.8592" y="137.07945"/>
	<node id="77" type="from" x="130.54205" y="48.614549999999994"/>
	<node id="78" type="to" x="113.3579" y="69.01445"/>
	<node id="79" type="from" x="111.44685000000001" y="67.4042"/>
	<node id="80" type="to" x="128.64225" y="46.9902"/>
	<node id="81" type="from" x="-32.817099999999996" y="-39.8505"/>
	<node id="82" type="to" x="-73.24010000000001" y="-73.77095"/>
	<node id="83" type="from" x="-71.6394" y="-75.68995000000001"/>
	<node id="84" type="to" x="-31.194699999999997" y="-41.7518"/>
	<node id="85" type="from" x="148.64945" y="67.90235"/>
	<node id="86" type="to" x="151.09785" y="64.32435"/>
	<node id="87" type="from" x="153.1808" y="65.70545"/>
	<node id="88" type="to" x="150.71255000000002" y="69.31425"/>
	<node id="89" type="from" x="-84.72455" y="-82.9783"/>
	<node id="90" type="to" x="-112.1712" y="-104.03280000000001"/>
	<node id="91" type="from" x="-110.64945" y="-106.01505"/>
	<node id="92" type="to" x="-83.20105000000001" y="-84.95935"/>
	<node id="93" type="from" x="149.57725" y="55.774699999999996"/>
	<node id="94" type="to" x="139.28105" y="47.4779"/>
	<node id="95" type="from" x="140.81459999999998" y="45.5064"/>
	<node id="96" type="to" x="151.1695" y="53.84805"/>
	<node id="97" type="from" x="-113.4956" y="-116.3041"/>
	<node id="98" type="to" x="-92.0828" y="-144.25715000000002"/>
	<node id="99" type="from" x="-90.09815" y="-142.7369"/>
	<node id="100" type="to" x="-111.5026" y="-114.79544999999999"/>
	<node id="101" type="from" x="136.72140000000002" y="41.21655"/>
	<node id="102" type="to" x="136.62805" y="41.234700000000004"/>
	<node id="103" type="from" x="134.5983" y="39.84925"/>
	<node id="104" type="to" x="134.9765" y="39.532"/>
	<node id="105" type="from" x="195.11450000000002" y="-53.4292"/>
	<node id="106" type="to" x="26.4246" y="-192.779625"/>
	<node id="107" type="from" x="-139.1695" y="-1.2119"/>
	<node id="108" type="to" x="-139.53785" y="-0.87155"/>
	<node id="109" type="from" x="-141.29095" y="-2.57345"/>
	<node id="110" type="to" x="-141.18040000000002" y="-2.50045"/>
	<node id="111" type="from" x="138.19575" y="108.348"/>
	<node id="112" type="to" x="128.04545000000002" y="121.2995"/>
	<node id="113" type="from" x="126.11315" y="119.71430000000001"/>
	<node id="114" type="to" x="136.19705" y="106.8485"/>
	<node id="115" type="from" x="129.0537" y="129.9137"/>
	<node id="116" type="to" x="141.68505" y="140.23865"/>
	<node id="117" type="from" x="140.10275000000001" y="142.17419999999998"/>
	<node id="118" type="to" x="127.44810000000001" y="131.82920000000001"/>
	<node id="119" type="from" x="103.8478" y="80.387"/>
	<node id="120" type="to" x="25.73605" y="164.0859"/>
	<node id="121" type="from" x="24.29235" y="162.04495"/>
	<node id="122" type="to" x="101.92644999999999" y="78.78864999999999"/>
	<node id="123" type="from" x="135.30015" y="97.95304999999999"/>
	<node id="124" type="to" x="112.57894999999999" y="79.3464"/>
	<node id="125" type="from" x="114.16159999999999" y="77.4123"/>
	<node id="126" type="to" x="136.90155" y="96.03399999999999"/>
	<node id="127" type="from" x="-123.92575" y="90.1049"/>
	<node id="128" type="to" x="-107.6263" y="64.39670000000001"/>
	<node id="129" type="from" x="-105.6421" y="65.916"/>
	<node id="130" type="to" x="-121.62475" y="91.0823"/>
</nodes>
