<routes>
	<vehicle depart="0.1" departLane="0" departPos="60.717548562503424" departSpeed="2.0765097" id="310" type="bicycle">
		<route edges="40271 40406"/>
	</vehicle>
	<vehicle depart="0.1" departLane="0" departPos="17.28012432308457" departSpeed="7.0370295" id="376" type="bus">
		<route edges=":57_6 40349 40409"/>
	</vehicle>
	<vehicle depart="0.1" departLane="0" departPos="56.54845107476354" departSpeed="1.8392198" id="322" type="passenger">
		<route edges="40271 40406"/>
	</vehicle>
	<vehicle depart="0.1" departLane="0" departPos="8.784951346014466" departSpeed="0.67091212" id="332" type="passenger">
		<route edges=":57_2 40349"/>
	</vehicle>
	<vehicle depart="0.1" departLane="0" departPos="9.676447984386705" departSpeed="0.65424502" id="337" type="passenger">
		<route edges=":57_4 40247"/>
	</vehicle>
	<vehicle depart="0.1" departLane="0" departPos="16.42331718415742" departSpeed="1.1888502" id="344" type="passenger">
		<route edges="40271 40406"/>
	</vehicle>
	<vehicle depart="0.1" departLane="0" departPos="30.53470112662564" departSpeed="1.5083157" id="353" type="passenger">
		<route edges="40271 40406"/>
	</vehicle>
	<vehicle depart="0.1" departLane="0" departPos="62.125482600878016" departSpeed="6.4358705" id="379" type="passenger">
		<route edges="40407 40272"/>
	</vehicle>
	<vehicle depart="0.1" departLane="0" departPos="12.8314953258765" departSpeed="0.73955881" id="34" type="motorcycle">
		<route edges=":57_11 40272"/>
	</vehicle>
</routes>
