<routes>
	<vehicle depart="0.1" departLane="0" departPos="71.74119424119823" departSpeed="4.4146316" id="1" type="passenger">
		<route edges="50201 50213 50197"/>
	</vehicle>
	<vehicle depart="0.1" departLane="0" departPos="71.69436259190086" departSpeed="3.6539987" id="2" type="passenger">
		<route edges="50195 50211 50199"/>
	</vehicle>
	<vehicle depart="0.1" departLane="0" departPos="135.61904194094157" departSpeed="2.2622092" id="4" type="passenger">
		<route edges="50205 50207 50197"/>
	</vehicle>
	<vehicle depart="0.1" departLane="0" departPos="143.6190920330299" departSpeed="4.4397439" id="5" type="passenger">
		<route edges="50205 50217 50199"/>
	</vehicle>
	<vehicle depart="0.1" departLane="0" departPos="43.551630628907574" departSpeed="1.8143833" id="7" type="passenger">
		<route edges="50201 50213 50197"/>
	</vehicle>
</routes>
