<!-- generated on Tue Feb  9 22:19:05 2021 by Eclipse SUMO netconvert Version 1.8.0
<configuration xmlns:xsi="http://www.w3.org/2001/XMLSchema-instance" xsi:noNamespaceSchemaLocation="http://sumo.dlr.de/xsd/netconvertConfiguration.xsd">

    <input>
        <node-files value="./converted_scenarios/scenario-factory/BEL_Putte-10_2_I-1-1/BEL_Putte-10_2_I-1-1.nod.xml"/>
        <edge-files value="./converted_scenarios/scenario-factory/BEL_Putte-10_2_I-1-1/BEL_Putte-10_2_I-1-1.edg.xml"/>
        <connection-files value="./converted_scenarios/scenario-factory/BEL_Putte-10_2_I-1-1/BEL_Putte-10_2_I-1-1.con.xml"/>
        <tllogic-files value="./converted_scenarios/scenario-factory/BEL_Putte-10_2_I-1-1/BEL_Putte-10_2_I-1-1.tll.xml"/>
        <type-files value="/home/zen/commonroad-interactive-benchmarks/install/commonroad-map-tool/crmapconverter/sumo_map/templates/DEU.typ.xml"/>
    </input>

    <output>
        <output-file value="./converted_scenarios/scenario-factory/BEL_Putte-10_2_I-1-1/BEL_Putte-10_2_I-1-1.net.xml"/>
    </output>

    <processing>
        <geometry.remove.keep-edges.explicit value="true"/>
        <geometry.avoid-overlap value="true"/>
        <offset.disable-normalization value="true"/>
    </processing>

    <junctions>
        <no-turnarounds value="true"/>
        <junctions.internal-link-detail value="20"/>
    </junctions>

    <report>
        <aggregate-warnings value="5"/>
    </report>

    <random_number>
        <seed value="1234"/>
    </random_number>

</configuration>
--><net xmlns:xsi="http://www.w3.org/2001/XMLSchema-instance" version="1.6" junctionCornerDetail="5" junctionLinkDetail="20" limitTurnSpeed="5.50" xsi:noNamespaceSchemaLocation="http://sumo.dlr.de/xsd/net_file.xsd">

    <location netOffset="0.00,0.00" convBoundary="24.04,-114.51,128.74,49.49" origBoundary="24.04,-114.51,128.74,49.49" projParameter="!"/>

    <type id="highway.bridleway" priority="1" speed="2.78" allow="pedestrian" oneway="1" width="2.00"/>
    <type id="highway.bus_guideway" priority="1" speed="27.78" allow="bus" oneway="1"/>
    <type id="highway.cycleway" priority="1" speed="8.33" allow="bicycle" oneway="0" width="1.00"/>
    <type id="highway.footway" priority="1" speed="2.78" allow="pedestrian" oneway="1" width="2.00"/>
    <type id="highway.ford" priority="1" speed="2.78" allow="army" oneway="0"/>
    <type id="highway.living_street" priority="2" speed="2.78" disallow="tram rail_urban rail rail_electric rail_fast ship" oneway="0"/>
    <type id="highway.motorway" priority="14" speed="39.44" allow="private emergency authority army vip passenger hov taxi bus coach delivery truck trailer motorcycle evehicle custom1 custom2" oneway="1"/>
    <type id="highway.motorway_link" priority="9" speed="22.22" allow="private emergency authority army vip passenger hov taxi bus coach delivery truck trailer motorcycle evehicle custom1 custom2" oneway="1"/>
    <type id="highway.path" priority="1" speed="2.78" allow="pedestrian bicycle" oneway="0" width="2.00"/>
    <type id="highway.pedestrian" priority="1" speed="2.78" allow="pedestrian" oneway="1" width="2.00"/>
    <type id="highway.primary" priority="12" speed="27.78" disallow="pedestrian tram rail_urban rail rail_electric rail_fast ship" oneway="0"/>
    <type id="highway.primary_link" priority="7" speed="22.22" disallow="pedestrian tram rail_urban rail rail_electric rail_fast ship" oneway="0"/>
    <type id="highway.raceway" priority="15" speed="83.33" allow="vip" oneway="0"/>
    <type id="highway.residential" priority="3" speed="13.89" disallow="pedestrian tram rail_urban rail rail_electric rail_fast ship" oneway="0"/>
    <type id="highway.secondary" priority="11" speed="27.78" disallow="pedestrian tram rail_urban rail rail_electric rail_fast ship" oneway="0"/>
    <type id="highway.secondary_link" priority="6" speed="22.22" disallow="pedestrian tram rail_urban rail rail_electric rail_fast ship" oneway="0"/>
    <type id="highway.service" priority="1" speed="5.56" allow="pedestrian delivery bicycle" oneway="0"/>
    <type id="highway.stairs" priority="1" speed="1.39" allow="pedestrian" oneway="1" width="2.00"/>
    <type id="highway.step" priority="1" speed="1.39" allow="pedestrian" oneway="1" width="2.00"/>
    <type id="highway.steps" priority="1" speed="1.39" allow="pedestrian" oneway="1" width="2.00"/>
    <type id="highway.tertiary" priority="10" speed="22.22" disallow="pedestrian tram rail_urban rail rail_electric rail_fast ship" oneway="0"/>
    <type id="highway.tertiary_link" priority="5" speed="22.22" disallow="pedestrian tram rail_urban rail rail_electric rail_fast ship" oneway="0"/>
    <type id="highway.track" priority="1" speed="5.56" allow="pedestrian motorcycle moped bicycle" oneway="0"/>
    <type id="highway.trunk" priority="13" speed="27.78" disallow="pedestrian bicycle tram rail_urban rail rail_electric rail_fast ship" oneway="0"/>
    <type id="highway.trunk_link" priority="8" speed="22.22" disallow="pedestrian bicycle tram rail_urban rail rail_electric rail_fast ship" oneway="0"/>
    <type id="highway.unclassified" priority="4" speed="13.89" disallow="pedestrian tram rail_urban rail rail_electric rail_fast ship" oneway="0"/>
    <type id="highway.unsurfaced" priority="1" speed="8.33" disallow="tram rail_urban rail rail_electric rail_fast ship" oneway="0"/>
    <type id="railway.highspeed" priority="21" speed="69.44" allow="rail_fast" oneway="1"/>
    <type id="railway.light_rail" priority="19" speed="27.78" allow="rail_urban" oneway="1"/>
    <type id="railway.preserved" priority="16" speed="27.78" allow="rail" oneway="1"/>
    <type id="railway.rail" priority="20" speed="44.44" allow="rail" oneway="1"/>
    <type id="railway.subway" priority="18" speed="27.78" allow="rail_urban" oneway="1"/>
    <type id="railway.tram" priority="17" speed="13.89" allow="tram" oneway="1"/>

    <edge id=":9_0" function="internal">
        <lane id=":9_0_0" index="0" disallow="pedestrian tram rail_urban rail rail_electric rail_fast ship" speed="10.93" length="42.90" width="3.50" shape="86.59,-39.49 83.77,-35.53 81.16,-32.44 79.43,-30.74 77.52,-29.23 76.14,-28.39 74.65,-27.76 73.06,-27.44 72.26,-27.43 71.45,-27.52 70.67,-27.72 69.21,-28.42 67.93,-29.41 66.83,-30.60 65.44,-32.58 63.94,-35.45 62.44,-39.21 61.02,-43.86 60.41,-46.21"/>
    </edge>
    <edge id=":9_1" function="internal">
        <lane id=":9_1_0" index="0" disallow="pedestrian tram rail_urban rail rail_electric rail_fast ship" speed="21.03" length="13.33" width="3.50" shape="67.45,-9.40 67.41,-10.30 66.75,-15.86 65.59,-22.59"/>
    </edge>
    <edge id=":9_2" function="internal">
        <lane id=":9_2_0" index="0" disallow="pedestrian tram rail_urban rail rail_electric rail_fast ship" speed="36.11" length="35.82" width="3.50" shape="68.34,-9.23 69.78,-14.13 71.73,-19.41 74.23,-25.02 77.29,-30.93 80.91,-37.11 83.67,-41.43"/>
    </edge>

    <edge id="12157" from="8" to="9" priority="3" type="highway.residential" spreadType="center" length="69.99" shape="128.74,-95.32 75.83,-31.81">
        <lane id="12157_0" index="0" disallow="pedestrian tram rail_urban rail rail_electric rail_fast ship" speed="36.11" length="69.99" width="3.50" customShape="1" shape="128.74,-95.32 122.21,-86.91 108.00,-69.05 98.94,-57.46 94.16,-50.91 86.59,-39.49"/>
    </edge>
    <edge id="12158" from="9" to="6" priority="3" type="highway.residential" spreadType="center" length="70.00" shape="73.14,-34.05 125.82,-97.27">
        <lane id="12158_0" index="0" disallow="pedestrian tram rail_urban rail rail_electric rail_fast ship" speed="36.11" length="70.00" width="3.50" customShape="1" shape="83.67,-41.43 91.27,-52.89 96.10,-59.51 105.19,-71.15 119.43,-89.04 125.82,-97.27"/>
    </edge>
    <edge id="12181" from="1" to="9" priority="3" type="highway.residential" spreadType="center" length="74.61">
        <lane id="12181_0" index="0" disallow="pedestrian tram rail_urban rail rail_electric rail_fast ship" speed="36.11" length="74.61" width="3.49" customShape="1" shape="24.04,49.49 33.92,38.32 50.89,20.28 56.54,13.80 61.23,7.85 63.87,4.14 65.38,1.51 66.37,-0.81 67.08,-3.23 68.26,-9.24"/>
    </edge>
    <edge id="12183" from="9" to="5" priority="3" type="highway.residential" spreadType="center" length="94.17">
        <lane id="12183_0" index="0" disallow="pedestrian tram rail_urban rail rail_electric rail_fast ship" speed="36.11" length="94.17" width="3.50" customShape="1" shape="66.04,-22.70 52.72,-78.39 48.05,-99.43 45.61,-111.72 45.13,-114.51"/>
    </edge>

    <junction id="1" type="dead_end" x="24.04" y="49.49" incLanes="" intLanes="" shape="25.35,50.65 22.73,48.33" rightOfWay="edgePriority"/>
    <junction id="5" type="dead_end" x="45.13" y="-114.51" incLanes="12183_0" intLanes="" shape="43.41,-114.22 46.86,-114.81" rightOfWay="edgePriority"/>
    <junction id="6" type="dead_end" x="125.82" y="-97.27" incLanes="12158_0" intLanes="" shape="124.44,-98.34 127.20,-96.19" rightOfWay="edgePriority"/>
    <junction id="8" type="dead_end" x="128.74" y="-95.32" incLanes="" intLanes="" shape="127.36,-96.40 130.13,-94.25" rightOfWay="edgePriority"/>
    <junction id="9" type="priority" x="74.51" y="-32.96" incLanes="12157_0 12181_0" intLanes=":9_0_0 :9_1_0 :9_2_0" shape="88.05,-38.52 82.21,-42.39 78.60,-36.98 75.25,-32.08 72.34,-27.98 70.01,-24.93 68.42,-23.22 67.74,-23.10 64.33,-22.29 65.11,-19.61 66.47,-15.96 66.86,-14.29 66.92,-12.28 66.55,-9.58 69.98,-8.90 71.82,-16.00 74.02,-20.93 76.68,-24.67 79.85,-28.20 83.61,-32.49">
        <request index="0" response="110" foes="110" cont="0"/>
        <request index="1" response="000" foes="001" cont="0"/>
        <request index="2" response="000" foes="001" cont="0"/>
    </junction>

    <connection from="12157" to="12183" fromLane="0" toLane="0" contPos="-4.00" shape="86.59,-39.49 83.77,-35.53 81.16,-32.44 79.43,-30.74 77.52,-29.23 76.14,-28.39 74.65,-27.76 73.06,-27.44 72.26,-27.43 71.45,-27.52 70.67,-27.72 69.21,-28.42 67.93,-29.41 66.83,-30.60 65.44,-32.58 63.94,-35.45 62.44,-39.21 61.02,-43.86 60.41,-46.21" via=":9_0_0" dir="l" state="m"/>
    <connection from="12181" to="12183" fromLane="0" toLane="0" contPos="-4.00" shape="67.37,-4.72 67.54,-6.75 67.41,-10.30 66.75,-15.86 65.28,-24.37 62.74,-36.31 60.41,-46.21" via=":9_1_0" dir="r" state="M"/>
    <connection from="12181" to="12158" fromLane="0" toLane="0" contPos="-4.00" shape="67.37,-4.72 68.34,-9.22 69.78,-14.13 71.73,-19.41 74.23,-25.02 77.29,-30.93 80.91,-37.11 83.67,-41.43" via=":9_2_0" dir="s" state="M"/>

    <connection from=":9_0" to="12183" fromLane="0" toLane="0" dir="l" state="M"/>
    <connection from=":9_1" to="12183" fromLane="0" toLane="0" dir="r" state="M"/>
    <connection from=":9_2" to="12158" fromLane="0" toLane="0" dir="s" state="M"/>

</net>