<routes>
	<vehicle depart="0.1" departLane="0" departPos="23.455010148625078" departSpeed="1.0982158" id="315" type="bicycle">
		<route edges="12157 12183"/>
	</vehicle>
	<vehicle depart="0.1" departLane="0" departPos="27.412563655027935" departSpeed="8.9229162" id="317" type="bicycle">
		<route edges=":9_1 12183"/>
	</vehicle>
	<vehicle depart="0.1" departLane="0" departPos="10.614026292155556" departSpeed="0.63382802" id="33" type="passenger">
		<route edges=":9_0 12183"/>
	</vehicle>
	<vehicle depart="0.1" departLane="0" departPos="2.5" departSpeed="0.4204062" id="34" type="passenger">
		<route edges=":9_0 12183"/>
	</vehicle>
	<vehicle depart="0.1" departLane="0" departPos="62.88201388920201" departSpeed="1.0298142" id="35" type="passenger">
		<route edges="12157 12183"/>
	</vehicle>
	<vehicle depart="0.1" departLane="0" departPos="51.94265628084091" departSpeed="0.79556784" id="39" type="passenger">
		<route edges="12157 12183"/>
	</vehicle>
	<vehicle depart="0.1" departLane="0" departPos="30.797443081220578" departSpeed="0.55630252" id="314" type="passenger">
		<route edges="12157 12183"/>
	</vehicle>
	<vehicle depart="0.1" departLane="0" departPos="14.343119790579232" departSpeed="1.2384427" id="318" type="passenger">
		<route edges="12157 12183"/>
	</vehicle>
	<vehicle depart="0.1" departLane="0" departPos="38.50674160884714" departSpeed="1.5988665" id="311" type="motorcycle">
		<route edges="12157 12183"/>
	</vehicle>
</routes>
