<!-- generated on 2020-12-18 16:02:26.424854 by ipykernel_launcher.py v1_2_0+5214-53edc58fcd
-->
<edges>
	<edge from="1" function="normal" id="3431" length="7.746632106922337" numLanes="5" priority="1" speed="36.11111111111111" spreadType="center" to="2">
		<lane allow="moped bicycle pedestrian custom1 trailer evehicle rail_urban ship private truck vip custom2 authority delivery rail_electric taxi tram army hov coach motorcycle passenger bus rail emergency" index="0" length="7.746632106922337" shape="2.0254499999999998,52.449200000000005 -1.51665,45.4387" speed="36.11111111111111" width="2.8417555225599553"/>
		<lane allow="moped bicycle pedestrian custom1 trailer evehicle rail_urban ship private truck vip custom2 authority delivery rail_electric taxi tram army hov coach motorcycle passenger bus rail emergency" index="1" length="7.746632106922337" shape="4.6527,51.1005 1.16985,44.092600000000004" speed="36.11111111111111" width="3.0646593807469045"/>
		<lane allow="moped bicycle pedestrian custom1 trailer evehicle rail_urban ship private truck vip custom2 authority delivery rail_electric taxi tram army hov coach motorcycle passenger bus rail emergency" index="2" length="7.746632106922337" shape="7.3637500000000005,49.70875 3.9161,42.7341" speed="36.11111111111111" width="3.0301778330652467"/>
		<lane allow="moped bicycle pedestrian custom1 trailer evehicle rail_urban ship private truck vip custom2 authority delivery rail_electric taxi tram army hov coach motorcycle passenger bus rail emergency" index="3" length="7.746632106922337" shape="10.082,48.3133 6.6506,41.3681" speed="36.11111111111111" width="3.052837840436337"/>
		<lane allow="moped bicycle pedestrian custom1 trailer evehicle rail_urban ship private truck vip custom2 authority delivery rail_electric taxi tram army hov coach motorcycle passenger bus rail emergency" index="4" length="7.746632106922337" shape="12.807300000000001,46.914249999999996 9.376349999999999,39.9253" speed="36.11111111111111" width="3.0460097258544665"/>
	</edge>
	<edge from="2" function="normal" id="3438" length="8.438893355322127" numLanes="6" priority="1" speed="36.11111111111111" spreadType="center" to="3">
		<lane allow="moped bicycle pedestrian custom1 trailer evehicle rail_urban ship private truck vip custom2 authority delivery rail_electric taxi tram army hov coach motorcycle passenger bus rail emergency" index="0" length="8.438893355322127" shape="-1.51665,45.4387 -8.1915,39.16195" speed="36.11111111111111" width="2.943512814648511"/>
		<lane allow="moped bicycle pedestrian custom1 trailer evehicle rail_urban ship private truck vip custom2 authority delivery rail_electric taxi tram army hov coach motorcycle passenger bus rail emergency" index="1" length="8.438893355322127" shape="-1.51665,45.4387 -5.3502,37.829049999999995" speed="36.11111111111111" width="2.943512814648511"/>
		<lane allow="moped bicycle pedestrian custom1 trailer evehicle rail_urban ship private truck vip custom2 authority delivery rail_electric taxi tram army hov coach motorcycle passenger bus rail emergency" index="2" length="8.438893355322127" shape="1.16985,44.092600000000004 -2.6016500000000002,36.4975" speed="36.11111111111111" width="3.0546153096584856"/>
		<lane allow="moped bicycle pedestrian custom1 trailer evehicle rail_urban ship private truck vip custom2 authority delivery rail_electric taxi tram army hov coach motorcycle passenger bus rail emergency" index="3" length="8.438893355322127" shape="3.9161,42.7341 0.12939999999999996,35.154650000000004" speed="36.11111111111111" width="3.0324580145485918"/>
		<lane allow="moped bicycle pedestrian custom1 trailer evehicle rail_urban ship private truck vip custom2 authority delivery rail_electric taxi tram army hov coach motorcycle passenger bus rail emergency" index="4" length="8.438893355322127" shape="6.6506,41.3681 2.8483,33.77345" speed="36.11111111111111" width="3.052837840436337"/>
		<lane allow="moped bicycle pedestrian custom1 trailer evehicle rail_urban ship private truck vip custom2 authority delivery rail_electric taxi tram army hov coach motorcycle passenger bus rail emergency" index="5" length="8.438893355322127" shape="9.376349999999999,39.9253 5.6362000000000005,32.3605" speed="36.11111111111111" width="3.115279160845783"/>
	</edge>
	<edge from="3" function="normal" id="3450" length="24.494871241480368" numLanes="6" priority="1" speed="36.11111111111111" spreadType="center" to="4">
		<lane allow="moped bicycle pedestrian custom1 trailer evehicle rail_urban ship private truck vip custom2 authority delivery rail_electric taxi tram army hov coach motorcycle passenger bus rail emergency" index="0" length="24.494871241480368" shape="-8.1915,39.16195 -11.3562,32.927899999999994 -15.1445,25.24075 -19.2302,17.29615" speed="36.11111111111111" width="3.224106265308263"/>
		<lane allow="moped bicycle pedestrian custom1 trailer evehicle rail_urban ship private truck vip custom2 authority delivery rail_electric taxi tram army hov coach motorcycle passenger bus rail emergency" index="1" length="24.494871241480368" shape="-5.3502,37.829049999999995 -8.3577,31.77745 -12.18065,23.8292 -16.2845,15.692450000000001" speed="36.11111111111111" width="2.8665619215359706"/>
		<lane allow="moped bicycle pedestrian custom1 trailer evehicle rail_urban ship private truck vip custom2 authority delivery rail_electric taxi tram army hov coach motorcycle passenger bus rail emergency" index="2" length="24.494871241480368" shape="-2.6016500000000002,36.4975 -5.62465,30.44605 -9.478449999999999,22.49825 -13.642,14.373899999999999" speed="36.11111111111111" width="3.004221073756058"/>
		<lane allow="moped bicycle pedestrian custom1 trailer evehicle rail_urban ship private truck vip custom2 authority delivery rail_electric taxi tram army hov coach motorcycle passenger bus rail emergency" index="3" length="24.494871241480368" shape="0.12939999999999996,35.154650000000004 -2.957,28.9964 -6.8416999999999994,21.049 -10.85735,12.999500000000001" speed="36.11111111111111" width="3.0189875720181423"/>
		<lane allow="moped bicycle pedestrian custom1 trailer evehicle rail_urban ship private truck vip custom2 authority delivery rail_electric taxi tram army hov coach motorcycle passenger bus rail emergency" index="4" length="24.494871241480368" shape="2.8483,33.77345 -0.27015,27.53875 -4.15485,19.59135 -8.09425,11.606200000000001" speed="36.11111111111111" width="3.018395509206838"/>
		<lane allow="moped bicycle pedestrian custom1 trailer evehicle rail_urban ship private truck vip custom2 authority delivery rail_electric taxi tram army hov coach motorcycle passenger bus rail emergency" index="5" length="24.494871241480368" shape="5.6362000000000005,32.3605 2.42375,26.03485 -1.4609500000000002,18.08745 -5.39845,10.233049999999999" speed="36.11111111111111" width="3.0323687935341903"/>
	</edge>
	<edge from="4" function="normal" id="3664" length="45.621593371778964" numLanes="2" priority="1" speed="36.11111111111111" spreadType="center" to="5">
		<lane allow="moped bicycle pedestrian custom1 trailer evehicle rail_urban ship private vip custom2 authority delivery rail_electric taxi tram army hov coach motorcycle passenger rail emergency" index="0" length="45.621593371778964" shape="-8.09425,11.606200000000001 -11.852599999999999,4.2248 -13.988,-0.18315 -15.052900000000001,-2.7150499999999997 -15.526349999999999,-4.7629 -15.654150000000001,-7.128299999999999 -15.212699999999998,-9.915 -14.477599999999999,-12.481200000000001 -13.41115,-14.41995 -11.9983,-16.56635 -8.87805,-19.5413 -2.83345,-23.024 6.1793,-27.7387" speed="36.11111111111111" width="2.934935747167219"/>
		<lane allow="moped bicycle pedestrian custom1 trailer evehicle rail_urban ship private vip custom2 authority delivery rail_electric taxi tram army hov coach motorcycle passenger rail emergency" index="1" length="45.621593371778964" shape="-5.39845,10.233049999999999 -8.74985,3.45685 -10.35775,-0.58855 -11.021550000000001,-2.9798 -11.297899999999998,-4.761150000000001 -11.465900000000001,-6.793950000000001 -11.236650000000001,-8.9017 -10.5884,-10.66755 -9.62205,-12.2486 -8.29605,-13.86785 -5.8232,-16.43625 -0.5586,-20.1946 7.72415,-24.647100000000002" speed="36.11111111111111" width="3.0323687935341903"/>
	</edge>
	<edge from="5" function="normal" id="3495" length="15.184501575044738" numLanes="3" priority="1" speed="36.11111111111111" spreadType="center" to="6">
		<lane allow="moped bicycle pedestrian custom1 trailer evehicle rail_urban ship private truck vip custom2 authority delivery rail_electric taxi tram army hov coach motorcycle passenger bus rail emergency" index="0" length="15.184501575044738" shape="4.55625,-31.0668 13.28355,-35.36185 18.19135,-37.777150000000006" speed="36.11111111111111" width="3.8765859644795713"/>
		<lane allow="moped bicycle pedestrian custom1 trailer evehicle rail_urban ship private truck vip custom2 authority delivery rail_electric taxi tram army hov coach motorcycle passenger bus rail emergency" index="1" length="15.184501575044738" shape="6.1793,-27.7387 14.90645,-32.03225 19.825049999999997,-34.45205" speed="36.11111111111111" width="3.5117895381130095"/>
		<lane allow="moped bicycle pedestrian custom1 trailer evehicle rail_urban ship private truck vip custom2 authority delivery rail_electric taxi tram army hov coach motorcycle passenger bus rail emergency" index="2" length="15.184501575044738" shape="7.72415,-24.647100000000002 16.40295,-28.9157 21.34975,-31.34875" speed="36.11111111111111" width="3.382313814535842"/>
	</edge>
	<edge from="4" function="normal" id="3610" length="13.553882434287972" numLanes="3" priority="1" speed="36.11111111111111" spreadType="center" to="7">
		<lane allow="moped bicycle pedestrian custom1 trailer evehicle rail_urban ship private truck vip custom2 authority delivery rail_electric taxi tram army hov coach motorcycle passenger bus rail emergency" index="0" length="13.553882434287972" shape="-16.2845,15.692450000000001 -22.3212,3.51655" speed="36.11111111111111" width="2.8665619215359706"/>
		<lane allow="moped bicycle pedestrian custom1 trailer evehicle rail_urban ship private truck vip custom2 authority delivery rail_electric taxi tram army hov coach motorcycle passenger bus rail emergency" index="1" length="13.553882434287972" shape="-13.642,14.373899999999999 -19.59225,2.1827" speed="36.11111111111111" width="3.017383603388872"/>
		<lane allow="moped bicycle pedestrian custom1 trailer evehicle rail_urban ship private truck vip custom2 authority delivery rail_electric taxi tram army hov coach motorcycle passenger bus rail emergency" index="2" length="13.553882434287972" shape="-10.85735,12.999500000000001 -16.83615,0.83555" speed="36.11111111111111" width="3.1180545505170363"/>
	</edge>
	<edge from="7" function="normal" id="3646" length="16.509632755735122" numLanes="3" priority="1" speed="36.11111111111111" spreadType="center" to="8">
		<lane allow="moped bicycle pedestrian custom1 trailer evehicle rail_urban ship private truck vip custom2 authority delivery rail_electric taxi tram army hov coach motorcycle passenger bus rail emergency" index="0" length="16.509632755735122" shape="-22.3212,3.51655 -23.7552,0.62415 -25.38845,-2.6704 -26.79355,-5.5043 -28.17895,-8.2987 -29.65455,-11.275" speed="36.11111111111111" width="3.0575892938718896"/>
		<lane allow="moped bicycle pedestrian custom1 trailer evehicle rail_urban ship private truck vip custom2 authority delivery rail_electric taxi tram army hov coach motorcycle passenger bus rail emergency" index="1" length="16.509632755735122" shape="-19.59225,2.1827 -21.0215,-0.7454999999999999 -22.63575,-4.053 -24.0268,-6.9011 -25.4067,-9.72655 -26.875500000000002,-12.733799999999999" speed="36.11111111111111" width="2.990382731357309"/>
		<lane allow="moped bicycle pedestrian custom1 trailer evehicle rail_urban ship private truck vip custom2 authority delivery rail_electric taxi tram army hov coach motorcycle passenger bus rail emergency" index="2" length="16.509632755735122" shape="-16.83615,0.83555 -18.286749999999998,-2.1157 -19.911900000000003,-5.4221 -21.3129,-8.2712 -22.7113,-11.11485 -24.19845,-14.13895" speed="36.11111111111111" width="3.056448910091578"/>
	</edge>
	<edge from="8" function="normal" id="3626" length="12.190574110865331" numLanes="3" priority="1" speed="36.11111111111111" spreadType="center" to="9">
		<lane allow="moped bicycle pedestrian custom1 trailer evehicle rail_urban ship private truck vip custom2 authority delivery rail_electric taxi tram army hov coach motorcycle passenger bus rail emergency" index="0" length="12.190574110865331" shape="-29.65455,-11.275 -35.06985,-22.19675" speed="36.11111111111111" width="3.2869467488841364"/>
		<lane allow="moped bicycle pedestrian custom1 trailer evehicle rail_urban ship private truck vip custom2 authority delivery rail_electric taxi tram army hov coach motorcycle passenger bus rail emergency" index="1" length="12.190574110865331" shape="-26.875500000000002,-12.733799999999999 -32.2262,-23.6894" speed="36.11111111111111" width="2.9693589611227513"/>
		<lane allow="moped bicycle pedestrian custom1 trailer evehicle rail_urban ship private truck vip custom2 authority delivery rail_electric taxi tram army hov coach motorcycle passenger bus rail emergency" index="2" length="12.190574110865331" shape="-24.19845,-14.13895 -29.57815,-25.079349999999998" speed="36.11111111111111" width="3.011988648716988"/>
	</edge>
	<edge from="9" function="normal" id="3542" length="42.04503365774769" numLanes="3" priority="1" speed="36.11111111111111" spreadType="center" to="10">
		<lane allow="moped bicycle pedestrian custom1 trailer evehicle rail_urban ship private truck vip custom2 authority delivery rail_electric taxi tram army hov coach motorcycle passenger rail emergency" index="0" length="42.04503365774769" shape="-35.06985,-22.19675 -39.23115,-30.73545 -43.284400000000005,-39.66545 -47.05645,-48.38395 -50.681200000000004,-57.6279 -51.99895,-60.841049999999996" speed="36.11111111111111" width="2.8481341330772993"/>
		<lane allow="moped bicycle pedestrian custom1 trailer evehicle rail_urban ship private truck vip custom2 authority delivery rail_electric taxi tram army hov coach motorcycle passenger bus rail emergency" index="1" length="42.04503365774769" shape="-32.2262,-23.6894 -36.4696,-32.2442 -40.55175,-41.02760000000001 -44.2924,-49.7158 -47.9464,-58.8361 -49.29245,-62.17465" speed="36.11111111111111" width="2.9693589611227513"/>
		<lane allow="moped bicycle pedestrian custom1 trailer evehicle rail_urban ship private truck vip custom2 authority delivery rail_electric taxi tram army hov coach motorcycle passenger bus rail emergency" index="2" length="42.04503365774769" shape="-29.57815,-25.079349999999998 -33.80095,-33.759299999999996 -37.8513,-42.4816 -41.62285,-51.169399999999996 -45.1177,-59.96875 -46.5304,-63.5356" speed="36.11111111111111" width="2.962201547835665"/>
	</edge>
	<edge from="4" function="normal" id="3604" length="15.83780930439205" numLanes="1" priority="1" speed="36.11111111111111" spreadType="center" to="11">
		<lane allow="moped bicycle pedestrian custom1 trailer evehicle rail_urban ship private vip custom2 authority delivery rail_electric taxi tram army hov coach motorcycle passenger rail emergency" index="0" length="15.83780930439205" shape="-19.2302,17.29615 -20.27245,16.02205 -21.5312,14.4702 -22.9192,13.07395 -24.799599999999998,11.83865 -26.5008,11.254850000000001 -28.296999999999997,11.05715 -30.2187,11.27665 -32.5347,12.02885" speed="36.11111111111111" width="3.843390931196045"/>
	</edge>
	<edge from="11" function="normal" id="3487" length="21.428343053832" numLanes="3" priority="1" speed="36.11111111111111" spreadType="center" to="12">
		<lane allow="moped bicycle pedestrian custom1 trailer evehicle rail_urban ship private truck vip custom2 authority delivery rail_electric taxi tram army hov coach motorcycle passenger bus rail emergency" index="0" length="21.428343053832" shape="-32.5347,12.02885 -41.7482,16.46825 -50.5851,21.28695 -51.581450000000004,21.83215" speed="36.11111111111111" width="4.576431161942677"/>
		<lane allow="moped bicycle pedestrian custom1 trailer evehicle rail_urban ship private truck vip custom2 authority delivery rail_electric taxi tram army hov coach motorcycle passenger bus rail emergency" index="1" length="21.428343053832" shape="-34.252,7.5749 -43.64245,12.61695 -52.2889,17.78695 -53.31585,18.403399999999998" speed="36.11111111111111" width="3.1084813092569807"/>
		<lane allow="moped bicycle pedestrian custom1 trailer evehicle rail_urban ship private truck vip custom2 authority delivery rail_electric taxi tram army hov coach motorcycle passenger bus rail emergency" index="2" length="21.428343053832" shape="-35.3877,4.3438 -45.169399999999996,9.59145 -53.81585,14.76145 -54.84545,15.37955" speed="36.11111111111111" width="3.6645851129425253"/>
	</edge>
	<edge from="13" function="normal" id="3479" length="22.65181742569602" numLanes="3" priority="1" speed="36.11111111111111" spreadType="center" to="14">
		<lane allow="moped bicycle pedestrian custom1 trailer evehicle rail_urban ship private truck vip custom2 authority delivery rail_electric taxi tram army hov coach motorcycle passenger bus rail emergency" index="0" length="22.65181742569602" shape="-59.70875,5.76525 -58.566199999999995,5.18735 -48.9862,0.43500000000000005 -39.37575,-4.3485499999999995" speed="36.11111111111111" width="3.231198096681787"/>
		<lane allow="moped bicycle pedestrian custom1 trailer evehicle rail_urban ship private truck vip custom2 authority delivery rail_electric taxi tram army hov coach motorcycle passenger rail emergency" index="1" length="22.65181742569602" shape="-58.297250000000005,8.55565 -57.13545,7.96795 -47.55545,3.2156 -37.94495,-1.56795" speed="36.11111111111111" width="3.0229731226062864"/>
		<lane allow="moped bicycle pedestrian custom1 trailer evehicle rail_urban ship private truck vip custom2 authority delivery rail_electric taxi tram army hov coach motorcycle passenger rail emergency" index="2" length="22.65181742569602" shape="-56.9247,11.26905 -55.7291,10.66425 -46.149100000000004,5.911899999999999 -36.6382,1.1913" speed="36.11111111111111" width="3.0586164927953936"/>
	</edge>
	<edge from="14" function="normal" id="3672" length="43.42964317851891" numLanes="1" priority="1" speed="36.11111111111111" spreadType="center" to="15">
		<lane allow="moped bicycle pedestrian custom1 trailer evehicle rail_urban ship private vip custom2 authority delivery rail_electric taxi tram army hov coach motorcycle passenger rail emergency" index="0" length="43.42964317851891" shape="-36.6382,1.1913 -31.480999999999998,-1.3490499999999999 -27.898200000000003,-2.83355 -24.05235,-4.1922 -21.27165,-5.1625 -18.7857,-5.65935 -16.550849999999997,-5.8717500000000005 -14.21465,-5.7547500000000005 -12.57015,-5.620349999999999 -11.4607,-5.3641 -10.52095,-4.7811 -9.6017,-3.4309 -8.446,-1.5025499999999998 -5.77855,2.7349 -4.2048,5.78665 -2.73305,8.8988" speed="36.11111111111111" width="2.9171821763475796"/>
	</edge>
	<edge from="15" function="normal" id="3456" length="24.710920579823163" numLanes="3" priority="1" speed="36.11111111111111" spreadType="center" to="16">
		<lane allow="moped bicycle pedestrian custom1 trailer evehicle rail_urban ship private truck vip custom2 authority delivery rail_electric taxi tram army hov coach motorcycle passenger bus rail emergency" index="0" length="24.710920579823163" shape="2.7936,6.1391 6.3894,13.332699999999999 10.242750000000001,21.2498 13.6054,28.3582" speed="36.11111111111111" width="3.0476685974692197"/>
		<lane allow="moped bicycle pedestrian custom1 trailer evehicle rail_urban ship private truck vip custom2 authority delivery rail_electric taxi tram army hov coach motorcycle passenger bus rail emergency" index="1" length="24.710920579823163" shape="-0.035250000000000004,7.53335 3.8248499999999996,15.10025 7.5031,22.66585 10.94195,29.6963" speed="36.11111111111111" width="2.9148241130469597"/>
		<lane allow="moped bicycle pedestrian custom1 trailer evehicle rail_urban ship private truck vip custom2 authority delivery rail_electric taxi tram army hov coach motorcycle passenger bus rail emergency" index="2" length="24.710920579823163" shape="-2.73305,8.8988 1.19545,16.661 4.9839,24.36355 8.355450000000001,31.01015" speed="36.11111111111111" width="2.888004380190584"/>
	</edge>
	<edge from="16" function="normal" id="3462" length="8.4666453021548" numLanes="3" priority="1" speed="36.11111111111111" spreadType="center" to="17">
		<lane allow="moped bicycle pedestrian custom1 trailer evehicle rail_urban ship private truck vip custom2 authority delivery rail_electric taxi tram army hov coach motorcycle passenger bus rail emergency" index="0" length="8.4666453021548" shape="13.6054,28.3582 17.4847,35.920950000000005" speed="36.11111111111111" width="3.0476685974692197"/>
		<lane allow="moped bicycle pedestrian custom1 trailer evehicle rail_urban ship private truck vip custom2 authority delivery rail_electric taxi tram army hov coach motorcycle passenger bus rail emergency" index="1" length="8.4666453021548" shape="10.94195,29.6963 14.76005,37.306" speed="36.11111111111111" width="2.9148241130469597"/>
		<lane allow="moped bicycle pedestrian custom1 trailer evehicle rail_urban ship private truck vip custom2 authority delivery rail_electric taxi tram army hov coach motorcycle passenger bus rail emergency" index="2" length="8.4666453021548" shape="8.355450000000001,31.01015 12.0961,38.60565" speed="36.11111111111111" width="2.888004380190584"/>
	</edge>
	<edge from="17" function="normal" id="3470" length="7.644506528383629" numLanes="3" priority="1" speed="36.11111111111111" spreadType="center" to="18">
		<lane allow="moped bicycle pedestrian custom1 trailer evehicle rail_urban ship private truck vip custom2 authority delivery rail_electric taxi tram army hov coach motorcycle passenger bus rail emergency" index="0" length="7.644506528383629" shape="17.4847,35.920950000000005 20.8761,42.772" speed="36.11111111111111" width="3.054999162029347"/>
		<lane allow="moped bicycle pedestrian custom1 trailer evehicle rail_urban ship private truck vip custom2 authority delivery rail_electric taxi tram army hov coach motorcycle passenger bus rail emergency" index="1" length="7.644506528383629" shape="14.76005,37.306 18.17555,44.15835" speed="36.11111111111111" width="2.9980111023810445"/>
		<lane allow="moped bicycle pedestrian custom1 trailer evehicle rail_urban ship private truck vip custom2 authority delivery rail_electric taxi tram army hov coach motorcycle passenger bus rail emergency" index="2" length="7.644506528383629" shape="12.0961,38.60565 15.49805,45.5329" speed="36.11111111111111" width="2.9350875710956212"/>
	</edge>
	<edge from="14" function="normal" id="3636" length="10.130444963203738" numLanes="2" priority="1" speed="36.11111111111111" spreadType="center" to="19">
		<lane allow="moped bicycle pedestrian custom1 trailer evehicle rail_urban ship private truck vip custom2 authority delivery rail_electric taxi tram army hov coach motorcycle passenger bus rail emergency" index="0" length="10.130444963203738" shape="-39.37575,-4.3485499999999995 -30.364649999999997,-9.033900000000001" speed="36.11111111111111" width="3.232186618993404"/>
		<lane allow="moped bicycle pedestrian custom1 trailer evehicle rail_urban ship private truck vip custom2 authority delivery rail_electric taxi tram army hov coach motorcycle passenger bus rail emergency" index="1" length="10.130444963203738" shape="-37.94495,-1.56795 -28.92025,-6.1701999999999995" speed="36.11111111111111" width="3.025465626973804"/>
	</edge>
	<edge from="19" function="normal" id="3658" length="24.834013362889845" numLanes="2" priority="1" speed="36.11111111111111" spreadType="center" to="20">
		<lane allow="moped bicycle pedestrian custom1 trailer evehicle rail_urban ship private truck vip custom2 authority delivery rail_electric taxi tram army hov coach motorcycle passenger bus rail emergency" index="0" length="24.834013362889845" shape="-30.364649999999997,-9.033900000000001 -27.46885,-10.5398 -24.81335,-11.920549999999999 -22.096400000000003,-13.33325 -19.1081,-14.887149999999998 -16.40645,-16.29205 -13.76175,-17.6672 -11.046199999999999,-19.0792 -8.27445,-20.52045" speed="36.11111111111111" width="3.3089087884074426"/>
		<lane allow="moped bicycle pedestrian custom1 trailer evehicle rail_urban ship private truck vip custom2 authority delivery rail_electric taxi tram army hov coach motorcycle passenger bus rail emergency" index="1" length="24.834013362889845" shape="-28.92025,-6.1701999999999995 -26.05225,-7.6328 -23.38125,-8.99485 -20.64295,-10.3912 -17.678350000000002,-11.90295 -14.9679,-13.2852 -12.31795,-14.63645 -9.5835,-16.03075 -6.7966999999999995,-17.451900000000002" speed="36.11111111111111" width="3.105783426126168"/>
	</edge>
	<edge from="20" function="normal" id="3676" length="16.155928389455166" numLanes="2" priority="1" speed="36.11111111111111" spreadType="center" to="5">
		<lane allow="moped bicycle pedestrian custom1 trailer evehicle rail_urban ship private truck vip custom2 authority delivery rail_electric taxi tram army hov coach motorcycle passenger bus rail emergency" index="0" length="16.155928389455166" shape="-8.27445,-20.52045 -2.25475,-23.526699999999998 6.1793,-27.7387" speed="36.11111111111111" width="3.5034549033775226"/>
		<lane allow="moped bicycle pedestrian custom1 trailer evehicle rail_urban ship private truck vip custom2 authority delivery rail_electric taxi tram army hov coach motorcycle passenger bus rail emergency" index="1" length="16.155928389455166" shape="-6.7966999999999995,-17.451900000000002 -0.77205,-20.437199999999997 7.72415,-24.647100000000002" speed="36.11111111111111" width="3.3082245268421544"/>
	</edge>
	<edge from="14" function="normal" id="3600" length="24.19746751136553" numLanes="1" priority="1" speed="36.11111111111111" spreadType="center" to="9">
		<lane allow="moped bicycle pedestrian custom1 trailer evehicle rail_urban ship private vip custom2 authority delivery rail_electric taxi tram army hov coach motorcycle passenger rail emergency" index="0" length="24.19746751136553" shape="-39.37575,-4.3485499999999995 -34.88745,-6.743500000000001 -32.89445,-7.9336 -31.2914,-8.8442 -30.548299999999998,-9.32415 -30.124200000000002,-9.91175 -30.0884,-10.7187 -30.4956,-12.130299999999998 -31.2965,-14.09645 -32.27695,-16.1948 -35.06985,-22.19675" speed="36.11111111111111" width="3.232186618993404"/>
	</edge>
	<edge from="21" function="normal" id="3502" length="11.53901742997741" numLanes="2" priority="1" speed="36.11111111111111" spreadType="center" to="22">
		<lane allow="moped bicycle pedestrian custom1 trailer evehicle rail_urban ship private truck vip custom2 authority delivery rail_electric taxi tram army hov coach motorcycle passenger bus rail emergency" index="0" length="11.53901742997741" shape="25.893250000000002,-22.1015 20.84355,-19.6331 15.49915,-17.02055" speed="36.11111111111111" width="3.607231317783766"/>
		<lane allow="moped bicycle pedestrian custom1 trailer evehicle rail_urban ship private truck vip custom2 authority delivery rail_electric taxi tram army hov coach motorcycle passenger bus rail emergency" index="1" length="11.53901742997741" shape="24.28865,-25.367350000000002 19.31305,-22.9347 13.9222,-20.29925" speed="36.11111111111111" width="3.630791497731592"/>
	</edge>
	<edge from="22" function="normal" id="3528" length="6.5755773961303206" numLanes="3" priority="1" speed="36.11111111111111" spreadType="center" to="23">
		<lane allow="moped bicycle pedestrian custom1 trailer evehicle rail_urban ship private truck vip custom2 authority delivery rail_electric taxi tram army hov coach motorcycle passenger bus rail emergency" index="0" length="6.5755773961303206" shape="15.49915,-17.02055 11.0763,-10.9987" speed="36.11111111111111" width="3.245737241367515"/>
		<lane allow="moped bicycle pedestrian custom1 trailer evehicle rail_urban ship private truck vip custom2 authority delivery rail_electric taxi tram army hov coach motorcycle passenger bus rail emergency" index="1" length="6.5755773961303206" shape="15.49915,-17.02055 9.58715,-14.08055" speed="36.11111111111111" width="3.6024336135451542"/>
		<lane allow="moped bicycle pedestrian custom1 trailer evehicle rail_urban ship private truck vip custom2 authority delivery rail_electric taxi tram army hov coach motorcycle passenger bus rail emergency" index="2" length="6.5755773961303206" shape="13.9222,-20.29925 8.03415,-17.37195" speed="36.11111111111111" width="3.6713079753679065"/>
	</edge>
	<edge from="23" function="normal" id="3534" length="6.6083636571393365" numLanes="3" priority="1" speed="36.11111111111111" spreadType="center" to="24">
		<lane allow="moped bicycle pedestrian custom1 trailer evehicle rail_urban ship private truck vip custom2 authority delivery rail_electric taxi tram army hov coach motorcycle passenger bus rail emergency" index="0" length="6.6083636571393365" shape="11.0763,-10.9987 5.09675,-8.10925" speed="36.11111111111111" width="3.190167196245362"/>
		<lane allow="moped bicycle pedestrian custom1 trailer evehicle rail_urban ship private truck vip custom2 authority delivery rail_electric taxi tram army hov coach motorcycle passenger bus rail emergency" index="1" length="6.6083636571393365" shape="9.58715,-14.08055 3.6470000000000002,-11.1358" speed="36.11111111111111" width="3.521568769738851"/>
		<lane allow="moped bicycle pedestrian custom1 trailer evehicle rail_urban ship private truck vip custom2 authority delivery rail_electric taxi tram army hov coach motorcycle passenger bus rail emergency" index="2" length="6.6083636571393365" shape="8.03415,-17.37195 2.1241,-14.4153" speed="36.11111111111111" width="3.677371487897299"/>
	</edge>
	<edge from="24" function="normal" id="3620" length="6.669397413559938" numLanes="2" priority="1" speed="36.11111111111111" spreadType="center" to="25">