<!-- generated on 2020-12-18 16:02:26.522085 by ipykernel_launcher.py v1_2_0+5214-53edc58fcd
-->
<nodes>
	<node id="1" type="from" x="7.386240000000001" y="49.697199999999995"/>
	<node id="2" type="to" x="3.9192499999999995" y="42.71176"/>
	<node id="3" type="to" x="-1.2549083333333328" y="35.79618333333333"/>
	<node id="4" type="to" x="-12.251125" y="13.700208333333336"/>
	<node id="5" type="to" x="6.951725" y="-26.1929"/>
	<node id="6" type="to" x="19.788716666666666" y="-34.525983333333336"/>
	<node id="7" type="to" x="-19.5832" y="2.178266666666667"/>
	<node id="8" type="to" x="-26.909499999999998" y="-12.715916666666667"/>
	<node id="9" type="to" x="-32.2914" y="-23.655166666666663"/>
	<node id="10" type="to" x="-49.27393333333333" y="-62.18376666666666"/>
	<node id="11" type="to" x="-32.5347" y="12.02885"/>
	<node id="12" type="to" x="-53.24758333333333" y="18.538366666666665"/>
	<node id="13" type="from" x="-58.310233333333336" y="8.529983333333334"/>
	<node id="14" type="to" x="-37.98629999999999" y="-1.5750666666666664"/>
	<node id="15" type="to" x="-2.73305" y="8.8988"/>
	<node id="16" type="to" x="10.9676" y="29.688216666666666"/>
	<node id="17" type="to" x="14.780283333333331" y="37.27753333333333"/>
	<node id="18" type="to" x="18.183233333333334" y="44.15441666666667"/>
	<node id="19" type="to" x="-29.642449999999997" y="-7.60205"/>
	<node id="20" type="to" x="-7.535575" y="-18.986175000000003"/>
	<node id="21" type="from" x="25.09095" y="-23.734425"/>
	<node id="22" type="to" x="14.710675" y="-18.6599"/>
	<node id="23" type="to" x="9.565866666666667" y="-14.1504"/>
	<node id="24" type="to" x="3.622616666666667" y="-11.220116666666668"/>
	<node id="25" type="to" x="-3.106925" y="-9.789950000000001"/>
	<node id="26" type="to" x="-25.1943" y="1.2159499999999999"/>
	<node id="27" type="from" x="-36.89436" y="-68.28353999999999"/>
	<node id="28" type="to" x="-18.281" y="-31.02206"/>
	<node id="29" type="to" x="-13.131516666666668" y="-19.94813333333333"/>
	<node id="30" type="to" x="-5.7715000000000005" y="-4.572633333333333"/>
</nodes>
