<routes>
	<vehicle depart="0.1" departLane="0" departPos="0" departSpeed="0.0" id="1664" type="passenger">
		<route edges="3664 3495"/>
	</vehicle>
	<vehicle depart="0.1" departLane="4" departPos="20.333026746414934" departSpeed="0.0" id="1680" type="passenger">
		<route edges="3450 3664 3495"/>
	</vehicle>
	<vehicle depart="0.1" departLane="4" departPos="13.993224239779373" departSpeed="0.0" id="1687" type="passenger">
		<route edges="3450 3664 3495"/>
	</vehicle>
	<vehicle depart="0.1" departLane="1" departPos="0" departSpeed="0.0" id="1690" type="passenger">
		<route edges="3664 3495"/>
	</vehicle>
	<vehicle depart="0.1" departLane="0" departPos="0" departSpeed="0.0" id="1700" type="passenger">
		<route edges="3670 3640 3487"/>
	</vehicle>
	<vehicle depart="0.1" departLane="4" departPos="0" departSpeed="0.0" id="1703" type="passenger">
		<route edges="3450 3664 3495"/>
	</vehicle>
	<vehicle depart="0.1" departLane="5" departPos="19.385970611083128" departSpeed="0.0" id="1705" type="passenger">
		<route edges="3450 3664 3495"/>
	</vehicle>
	<vehicle depart="0.1" departLane="4" departPos="8.49330288595079" departSpeed="0.0" id="1708" type="passenger">
		<route edges="3438 3450 3664 3495"/>
	</vehicle>
	<vehicle depart="0.1" departLane="5" departPos="0" departSpeed="0.0" id="1711" type="passenger">
		<route edges="3450 3664 3495"/>
	</vehicle>
	<vehicle depart="0.1" departLane="4" departPos="0" departSpeed="0.11887" id="1714" type="passenger">
		<route edges="3438 3450 3664 3495"/>
	</vehicle>
	<vehicle depart="0.1" departLane="3" departPos="22.235578927483875" departSpeed="0.0" id="1742" type="passenger">
		<route edges="3450 3610 3646 3626 3542"/>
	</vehicle>
	<vehicle depart="0.1" departLane="3" departPos="0" departSpeed="0.033528" id="1745" type="passenger">
		<route edges="3450 3610 3646 3626 3542"/>
	</vehicle>
	<vehicle depart="0.1" departLane="3" departPos="0" departSpeed="0.0" id="1748" type="passenger">
		<route edges="3450 3610 3646 3626 3542"/>
	</vehicle>
	<vehicle depart="0.1" departLane="0" departPos="6.641079694221415" departSpeed="1.6916" id="1750" type="passenger">
		<route edges="3534 3602 3456 3462 3470"/>
	</vehicle>
	<vehicle depart="0.1" departLane="5" departPos="0" departSpeed="0.0" id="1755" type="passenger">
		<route edges="3450 3664 3495"/>
	</vehicle>
	<vehicle depart="0.1" departLane="1" departPos="0" departSpeed="0.0" id="1757" type="passenger">
		<route edges="3610 3646 3626 3542"/>
	</vehicle>
	<vehicle depart="0.1" departLane="3" departPos="0" departSpeed="0.9144" id="1758" type="passenger">
		<route edges="3438 3450 3610 3646 3626 3542"/>
	</vehicle>
	<vehicle depart="0.1" departLane="0" departPos="0" departSpeed="1.9629" id="1759" type="passenger">
		<route edges="3604 3487"/>
	</vehicle>
	<vehicle depart="0.1" departLane="2" departPos="0" departSpeed="0.9845" id="1761" type="passenger">
		<route edges="3431 3438 3450 3610 3646 3626 3542"/>
	</vehicle>
	<vehicle depart="0.1" departLane="2" departPos="0" departSpeed="0.0" id="1769" type="passenger">
		<route edges="3632 3652 3616 3456 3462 3470"/>
	</vehicle>
	<vehicle depart="0.1" departLane="1" departPos="5.453433306729539" departSpeed="9.7079" id="1771" type="passenger">
		<route edges="3438 3438 3450 3604 3487"/>
	</vehicle>
	<vehicle depart="0.1" departLane="1" departPos="41.56189728917717" departSpeed="0.085344" id="1775" type="passenger">
		<route edges="3573 3680 3495"/>
	</vehicle>
	<vehicle depart="0.1" departLane="2" departPos="41.65840591059532" departSpeed="0.0" id="1776" type="passenger">
		<route edges="3573 3632 3652 3616 3456 3462 3470"/>
	</vehicle>
	<vehicle depart="0.1" departLane="1" departPos="31.26364550191238" departSpeed="0.36881" id="1777" type="passenger">
		<route edges="3573 3680 3495"/>
	</vehicle>
	<vehicle depart="0.1" departLane="1" departPos="22.52163132260732" departSpeed="1.0089" id="1780" type="passenger">
		<route edges="3573 3680 3495"/>
	</vehicle>
	<vehicle depart="0.1" departLane="2" departPos="30.67941672591836" departSpeed="0.039624" id="1781" type="passenger">
		<route edges="3573 3632 3652 3616 3456 3462 3470"/>
	</vehicle>
	<vehicle depart="0.1" departLane="2" departPos="23.17677879446726" departSpeed="0.41148" id="1782" type="passenger">
		<route edges="3573 3632 3652 3616 3456 3462 3470"/>
	</vehicle>
	<vehicle depart="0.1" departLane="1" departPos="0" departSpeed="2.6091" id="1783" type="passenger">
		<route edges="3573 3680 3495"/>
	</vehicle>
	<vehicle depart="0.1" departLane="2" departPos="13.892790596542035" departSpeed="0.64922" id="1788" type="passenger">
		<route edges="3573 3632 3652 3616 3456 3462 3470"/>
	</vehicle>
	<vehicle depart="0.1" departLane="2" departPos="0" departSpeed="4.7335" id="1789" type="passenger">
		<route edges="3573 3632 3652 3616 3456 3462 3470"/>
	</vehicle>
	<vehicle depart="0.1" departLane="3" departPos="24.36266333052851" departSpeed="6.2972" id="1790" type="passenger">
		<route edges="3573 3632 3652 3616 3456 3462 3470"/>
	</vehicle>
	<vehicle depart="0.1" departLane="1" departPos="22.08214349195955" departSpeed="14.5816" id="1792" type="passenger">
		<route edges="3456 3462 3470"/>
	</vehicle>
	<vehicle depart="0.1" departLane="0" departPos="0" departSpeed="0.0" id="1794" type="passenger">
		<route edges="3620 3662 3640 3487"/>
	</vehicle>
	<vehicle depart="0.1" departLane="2" departPos="10.057314464455828" departSpeed="7.6352" id="1798" type="passenger">
		<route edges="3616 3456 3456 3462 3470"/>
	</vehicle>
</routes>
