<?xml version="1.0" encoding="UTF-8"?>

<!-- generated on Fri Dec 18 16:02:26 2020 by Eclipse SUMO netconvert Version 1.8.0
<configuration xmlns:xsi="http://www.w3.org/2001/XMLSchema-instance" xsi:noNamespaceSchemaLocation="http://sumo.dlr.de/xsd/netconvertConfiguration.xsd">

    <input>
        <node-files value="./converted_scenarios/NGSIM/Lankershim/USA_Lanker-1_4_I-1-1/nodes.net.xml"/>
        <edge-files value="./converted_scenarios/NGSIM/Lankershim/USA_Lanker-1_4_I-1-1/edges.net.xml"/>
        <connection-files value="./converted_scenarios/NGSIM/Lankershim/USA_Lanker-1_4_I-1-1/_connections.net.xml"/>
        <tllogic-files value="./converted_scenarios/NGSIM/Lankershim/USA_Lanker-1_4_I-1-1/_tll.net.xml"/>
    </input>

    <output>
        <output-file value="./converted_scenarios/NGSIM/Lankershim/USA_Lanker-1_4_I-1-1/USA_Lanker-1_4_I-1-1.net.xml"/>
    </output>

    <processing>
        <plain.extend-edge-shape value="true"/>
        <geometry.remove.keep-edges.explicit value="true"/>
        <geometry.avoid-overlap value="true"/>
        <offset.disable-normalization value="true"/>
    </processing>

    <junctions>
        <no-turnarounds value="true"/>
        <junctions.internal-link-detail value="20"/>
    </junctions>

    <report>
        <aggregate-warnings value="5"/>
    </report>

    <random_number>
        <seed value="1234"/>
    </random_number>

</configuration>
-->

<net version="1.6" junctionCornerDetail="5" junctionLinkDetail="20" limitTurnSpeed="5.50" xmlns:xsi="http://www.w3.org/2001/XMLSchema-instance" xsi:noNamespaceSchemaLocation="http://sumo.dlr.de/xsd/net_file.xsd">

    <location netOffset="0.00,0.00" convBoundary="-58.31,-68.28,25.09,49.70" origBoundary="-59.71,-71.01,25.89,52.45" projParameter="!"/>

    <edge id=":11_0" function="internal">
        <lane id=":11_0_0" index="0" disallow="bus truck rail_fast" speed="36.11" length="8.30" width="4.58" shape="-39.65,14.34 -31.79,11.67"/>
    </edge>
    <edge id=":11_1" function="internal">
        <lane id=":11_1_0" index="0" disallow="rail_fast" speed="36.11" length="1.01" width="3.11" shape="-32.70,6.81 -33.63,7.24"/>
        <lane id=":11_1_1" index="1" disallow="rail_fast" speed="36.11" length="1.01" width="3.66" shape="-34.02,3.67 -34.93,4.10"/>
    </edge>
    <edge id=":14_0" function="internal">
        <lane id=":14_0_0" index="0" disallow="bus truck rail_fast" speed="7.94" length="13.70" width="3.23" shape="-41.05,-3.51 -39.83,-4.13 -38.68,-4.71 -37.60,-5.28 -36.59,-5.81 -35.64,-6.32 -34.77,-6.81 -33.97,-7.27 -33.24,-7.70 -32.57,-8.11 -31.98,-8.50 -31.45,-8.85 -31.00,-9.19 -30.61,-9.50 -30.30,-9.78 -30.05,-10.04 -29.87,-10.27 -29.77,-10.47 -29.73,-10.66 -29.76,-10.81"/>
    </edge>
    <edge id=":14_1" function="internal">
        <lane id=":14_1_0" index="0" disallow="rail_fast" speed="36.11" length="13.45" width="3.23" shape="-41.05,-3.51 -29.12,-9.68"/>
        <lane id=":14_1_1" index="1" disallow="bus rail_fast" speed="36.11" length="13.45" width="3.03" shape="-39.66,-0.71 -27.65,-6.82"/>
    </edge>
    <edge id=":14_3" function="internal">
        <lane id=":14_3_0" index="0" disallow="bus truck rail_fast" speed="36.11" length="2.11" width="2.92" shape="-38.31,2.02 -40.20,2.95"/>
    </edge>
    <edge id=":15_0" function="internal">
        <lane id=":15_0_0" index="0" disallow="bus truck rail_fast" speed="9.12" length="13.80" width="3.05" shape="2.42,-5.95 2.05,-5.53 1.73,-5.07 1.45,-4.59 1.22,-4.07 1.04,-3.53 0.90,-2.97 0.80,-2.37 0.75,-1.74 0.75,-1.09 0.79,-0.41 0.88,0.30 1.01,1.04 1.19,1.81 1.42,2.60 1.69,3.42 2.00,4.27 2.36,5.15 2.77,6.06 3.22,7.00"/>
    </edge>
    <edge id=":15_1" function="internal">
        <lane id=":15_1_0" index="0" disallow="rail_fast" speed="36.11" length="13.06" width="3.05" shape="-2.42,-4.73 3.22,7.00"/>
        <lane id=":15_1_1" index="1" disallow="rail_fast" speed="36.11" length="13.06" width="2.91" shape="-5.24,-3.38 0.41,8.41"/>
        <lane id=":15_1_2" index="2" disallow="rail_fast" speed="36.11" length="13.06" width="2.89" shape="-7.96,-2.06 -2.30,9.76"/>
    </edge>
    <edge id=":15_4" function="internal">
        <lane id=":15_4_0" index="0" disallow="bus truck rail_fast" speed="36.11" length="13.55" width="2.89" shape="-8.82,-2.12 -2.30,9.76"/>
    </edge>
    <edge id=":16_0" function="internal">
        <lane id=":16_0_0" index="0" disallow="rail_fast" speed="36.11" length="0.24" width="3.05" shape="13.56,28.25 13.66,28.46"/>
        <lane id=":16_0_1" index="1" disallow="rail_fast" speed="36.11" length="0.24" width="2.91" shape="10.89,29.59 11.00,29.80"/>
        <lane id=":16_0_2" index="2" disallow="rail_fast" speed="36.11" length="0.24" width="2.89" shape="8.29,30.89 8.41,31.11"/>
    </edge>
    <edge id=":17_0" function="internal">
        <lane id=":17_0_0" index="0" disallow="rail_fast" speed="36.11" length="3.05" width="3.05" shape="16.77,34.54 18.15,37.27"/>
        <lane id=":17_0_1" index="1" disallow="rail_fast" speed="36.11" length="3.05" width="3.00" shape="14.05,35.90 15.42,38.62"/>
        <lane id=":17_0_2" index="2" disallow="rail_fast" speed="36.11" length="3.05" width="2.94" shape="11.41,37.22 12.75,39.94"/>
    </edge>
    <edge id=":19_0" function="internal">
        <lane id=":19_0_0" index="0" disallow="rail_fast" speed="36.11" length="0.12" width="3.31" shape="-28.94,-9.77 -29.05,-9.72"/>
        <lane id=":19_0_1" index="1" disallow="rail_fast" speed="36.11" length="0.12" width="3.11" shape="-27.48,-6.91 -27.58,-6.85"/>
    </edge>
    <edge id=":2_0" function="internal">
        <lane id=":2_0_0" index="0" disallow="rail_fast" speed="21.97" length="7.43" width="2.94" shape="-0.33,47.79 -0.59,47.29 -0.82,46.84 -1.04,46.45 -1.25,46.09 -1.45,45.77 -1.65,45.48 -1.84,45.22 -2.03,44.97 -2.23,44.74 -2.43,44.52 -2.65,44.31 -2.88,44.09 -3.12,43.87 -3.38,43.63 -3.67,43.37 -3.98,43.09 -4.32,42.79 -4.70,42.44 -5.11,42.06"/>
        <lane id=":2_0_1" index="1" disallow="rail_fast" speed="36.11" length="7.43" width="2.94" shape="-0.33,47.79 -3.64,41.23"/>
        <lane id=":2_0_2" index="2" disallow="rail_fast" speed="36.11" length="7.43" width="3.05" shape="2.34,46.44 -1.00,39.73"/>
        <lane id=":2_0_3" index="3" disallow="rail_fast" speed="36.11" length="7.43" width="3.03" shape="5.07,45.06 1.66,38.22"/>
        <lane id=":2_0_4" index="4" disallow="rail_fast" speed="36.11" length="7.43" width="3.05" shape="7.80,43.69 4.32,36.71"/>
        <lane id=":2_0_5" index="5" disallow="rail_fast" speed="36.11" length="7.43" width="3.12" shape="10.54,42.30 7.55,36.23"/>
    </edge>
    <edge id=":20_0" function="internal">
        <lane id=":20_0_0" index="0" disallow="rail_fast" speed="36.11" length="3.06" width="3.50" shape="-9.67,-19.79 -6.94,-21.19"/>
        <lane id=":20_0_1" index="1" disallow="rail_fast" speed="36.11" length="3.06" width="3.31" shape="-8.16,-16.76 -5.44,-18.12"/>
    </edge>
    <edge id=":22_0" function="internal">
        <lane id=":22_0_0" index="0" disallow="rail_fast" speed="14.45" length="8.28" width="3.25" shape="19.15,-18.80 18.61,-18.54 18.12,-18.29 17.67,-18.07 17.27,-17.86 16.91,-17.66 16.58,-17.46 16.28,-17.27 16.00,-17.07 15.74,-16.87 15.49,-16.66 15.25,-16.43 15.01,-16.19 14.77,-15.92 14.52,-15.63 14.27,-15.31 13.99,-14.95 13.69,-14.55 13.36,-14.11 13.01,-13.63"/>
        <lane id=":22_0_1" index="1" disallow="rail_fast" speed="36.11" length="8.28" width="3.60" shape="19.15,-18.80 11.91,-15.24"/>
        <lane id=":22_0_2" index="2" disallow="rail_fast" speed="36.11" length="8.28" width="3.67" shape="17.56,-22.08 9.86,-18.28"/>
    </edge>
    <edge id=":23_0" function="internal">
        <lane id=":23_0_0" index="0" disallow="rail_fast" speed="9.74" length="3.41" width="3.19" shape="11.67,-11.81 11.51,-11.59 11.35,-11.40 11.21,-11.23 11.07,-11.09 10.94,-10.96 10.81,-10.85 10.68,-10.75 10.56,-10.67 10.43,-10.60 10.29,-10.53 10.16,-10.46 10.01,-10.40 9.86,-10.34 9.69,-10.27 9.51,-10.20 9.32,-10.12 9.11,-10.04 8.88,-9.94 8.63,-9.82"/>
        <lane id=":23_0_1" index="1" disallow="rail_fast" speed="36.11" length="3.41" width="3.52" shape="10.19,-14.38 7.16,-12.88"/>
        <lane id=":23_0_2" index="2" disallow="rail_fast" speed="36.11" length="3.41" width="3.68" shape="8.38,-17.55 5.58,-16.15"/>
    </edge>
    <edge id=":24_0" function="internal">
        <lane id=":24_0_0" index="0" disallow="bus truck rail_fast" speed="14.27" length="3.68" width="2.93" shape="6.01,-8.55 5.76,-8.43 5.54,-8.33 5.34,-8.23 5.15,-8.15 4.98,-8.07 4.82,-8.00 4.68,-7.93 4.54,-7.85 4.41,-7.78 4.29,-7.71 4.16,-7.63 4.04,-7.54 3.91,-7.44 3.78,-7.33 3.64,-7.21 3.50,-7.07 3.34,-6.91 3.17,-6.74 2.98,-6.54"/>
    </edge>
    <edge id=":24_1" function="internal">
        <lane id=":24_1_0" index="0" disallow="rail_fast" speed="36.11" length="11.27" width="3.46" shape="4.56,-11.59 -5.53,-6.59"/>
        <lane id=":24_1_1" index="1" disallow="rail_fast" speed="36.11" length="11.27" width="3.70" shape="3.00,-14.85 -7.08,-9.80"/>
    </edge>
    <edge id=":24_3" function="internal">
        <lane id=":24_3_0" index="0" disallow="bus truck rail_fast" speed="17.55" length="16.88" width="3.01" shape="3.00,-14.85 1.86,-14.30 0.77,-13.80 -0.27,-13.35 -1.26,-12.96 -2.21,-12.61 -3.12,-12.32 -3.99,-12.06 -4.83,-11.85 -5.65,-11.68 -6.44,-11.55 -7.22,-11.44 -7.98,-11.37 -8.74,-11.33 -9.48,-11.32 -10.22,-11.32 -10.97,-11.35 -11.72,-11.40 -12.49,-11.46 -13.26,-11.54"/>
    </edge>
    <edge id=":25_0" function="internal">
        <lane id=":25_0_0" index="0" disallow="rail_fast" speed="36.11" length="2.24" width="3.21" shape="-5.71,-6.51 -3.70,-7.50"/>
        <lane id=":25_0_1" index="1" disallow="rail_fast" speed="36.11" length="2.24" width="3.68" shape="-7.26,-9.71 -5.27,-10.71"/>
    </edge>
    <edge id=":26_0" function="internal">
        <lane id=":26_0_0" index="0" disallow="rail_fast" speed="36.11" length="14.96" width="3.17" shape="-13.37,-2.71 -26.78,3.91"/>
        <lane id=":26_0_1" index="1" disallow="rail_fast" speed="36.11" length="14.96" width="3.68" shape="-14.94,-5.86 -28.31,0.84"/>
    </edge>
    <edge id=":26_2" function="internal">
        <lane id=":26_2_0" index="0" disallow="bus truck rail_fast" speed="11.28" length="15.17" width="3.68" shape="-19.47,-10.74 -19.64,-9.92 -19.83,-9.13 -20.06,-8.36 -20.32,-7.61 -20.62,-6.88 -20.95,-6.18 -21.31,-5.50 -21.71,-4.84 -22.14,-4.21 -22.61,-3.60 -23.11,-3.02 -23.64,-2.45 -24.21,-1.91 -24.81,-1.40 -25.44,-0.90 -26.11,-0.43 -26.81,0.01 -27.55,0.44 -28.31,0.84"/>
    </edge>
    <edge id=":28_0" function="internal">
        <lane id=":28_0_0" index="0" disallow="bus truck rail_fast" speed="10.22" length="10.24" width="3.11" shape="-13.48,-35.81 -13.25,-35.41 -12.99,-35.02 -12.71,-34.64 -12.41,-34.28 -12.08,-33.93 -11.73,-33.59 -11.36,-33.27 -10.97,-32.95 -10.55,-32.65 -10.11,-32.37 -9.65,-32.10 -9.17,-31.83 -8.67,-31.59 -8.14,-31.35 -7.59,-31.13 -7.01,-30.92 -6.42,-30.73 -5.80,-30.55 -5.16,-30.38"/>
    </edge>
    <edge id=":28_1" function="internal">
        <lane id=":28_1_0" index="0" disallow="bus truck rail_fast" speed="11.58" length="11.05" width="3.13" shape="-16.54,-34.21 -16.17,-33.50 -15.83,-32.86 -15.50,-32.29 -15.18,-31.78 -14.87,-31.33 -14.55,-30.93 -14.23,-30.57 -13.90,-30.25 -13.55,-29.97 -13.19,-29.70 -12.80,-29.46 -12.38,-29.24 -11.93,-29.02 -11.45,-28.80 -10.92,-28.58 -10.34,-28.35 -9.71,-28.10 -9.03,-27.83 -8.28,-27.54"/>
    </edge>
    <edge id=":28_2" function="internal">
        <lane id=":28_2_0" index="0" disallow="rail_fast" speed="36.11" length="10.45" width="3.12" shape="-16.54,-34.21 -11.97,-24.65"/>
        <lane id=":28_2_1" index="1" disallow="rail_fast" speed="36.11" length="10.45" width="3.06" shape="-19.27,-32.77 -14.77,-23.34"/>
        <lane id=":28_2_2" index="2" disallow="rail_fast" speed="36.11" length="10.45" width="2.98" shape="-21.96,-31.35 -17.50,-22.05"/>
    </edge>
    <edge id=":28_5" function="internal">
        <lane id=":28_5_0" index="0" disallow="bus truck rail_fast" speed="36.11" length="10.20" width="2.87" shape="-24.65,-29.94 -24.31,-29.26 -24.01,-28.64 -23.73,-28.08 -23.47,-27.57 -23.24,-27.10 -23.03,-26.67 -22.83,-26.27 -22.65,-25.89 -22.48,-25.51 -22.31,-25.14 -22.14,-24.76 -21.98,-24.37 -21.81,-23.96 -21.64,-23.52 -21.46,-23.04 -21.27,-22.52 -21.06,-21.94 -20.84,-21.30 -20.59,-20.60"/>
    </edge>
    <edge id=":29_0" function="internal">
        <lane id=":29_0_0" index="0" disallow="rail_fast" speed="36.11" length="3.22" width="3.12" shape="-11.09,-22.79 -9.70,-19.89"/>
        <lane id=":29_0_1" index="1" disallow="rail_fast" speed="36.11" length="3.22" width="3.06" shape="-13.84,-21.39 -12.46,-18.49"/>
        <lane id=":29_0_2" index="2" disallow="rail_fast" speed="36.11" length="3.22" width="2.95" shape="-16.54,-20.03 -15.15,-17.12"/>
    </edge>
    <edge id=":3_0" function="internal">
        <lane id=":3_0_0" index="0" disallow="rail_fast" speed="15.71" length="3.50" width="3.22" shape="-5.49,41.70 -5.70,41.52 -5.89,41.35 -6.07,41.21 -6.24,41.09 -6.40,40.98 -6.55,40.89 -6.69,40.80 -6.83,40.71 -6.96,40.63 -7.09,40.55 -7.21,40.46 -7.33,40.36 -7.45,40.25 -7.56,40.13 -7.68,39.99 -7.80,39.83 -7.92,39.65 -8.05,39.43 -8.18,39.19"/>
        <lane id=":3_0_1" index="1" disallow="rail_fast" speed="36.11" length="3.50" width="2.87" shape="-3.83,40.85 -5.35,37.83"/>
        <lane id=":3_0_2" index="2" disallow="rail_fast" speed="36.11" length="3.50" width="3.00" shape="-1.13,39.46 -2.60,36.50"/>
        <lane id=":3_0_3" index="3" disallow="rail_fast" speed="36.11" length="3.50" width="3.02" shape="1.58,38.06 0.13,35.15"/>
        <lane id=":3_0_4" index="4" disallow="rail_fast" speed="36.11" length="3.50" width="3.02" shape="4.28,36.62 2.85,33.77"/>
        <lane id=":3_0_5" index="5" disallow="rail_fast" speed="36.11" length="3.50" width="3.03" shape="7.46,36.05 5.64,32.36"/>
    </edge>
    <edge id=":30_0" function="internal">
        <lane id=":30_0_0" index="0" disallow="rail_fast" speed="36.11" length="2.64" width="3.14" shape="-3.65,-7.30 -2.51,-4.91"/>
        <lane id=":30_0_1" index="1" disallow="rail_fast" speed="36.11" length="2.64" width="3.10" shape="-6.46,-5.94 -5.32,-3.56"/>
        <lane id=":30_0_2" index="2" disallow="rail_fast" speed="36.11" length="2.64" width="2.93" shape="-9.18,-4.62 -8.05,-2.24"/>
    </edge>
    <edge id=":4_0" function="internal">
        <lane id=":4_0_0" index="0" disallow="bus truck rail_fast" speed="36.11" length="5.96" width="3.84" shape="-17.44,20.78 -17.64,20.38 -17.82,20.02 -17.99,19.69 -18.13,19.40 -18.27,19.13 -18.39,18.88 -18.51,18.65 -18.62,18.43 -18.74,18.22 -18.85,18.01 -18.97,17.81 -19.11,17.60 -19.25,17.38 -19.41,17.16 -19.58,16.92 -19.78,16.65 -20.00,16.37 -20.25,16.05 -20.53,15.71"/>
    </edge>
    <edge id=":4_1" function="internal">
        <lane id=":4_1_0" index="0" disallow="rail_fast" speed="36.11" length="6.33" width="2.87" shape="-14.48,19.27 -17.33,13.58"/>
        <lane id=":4_1_1" index="1" disallow="rail_fast" speed="36.11" length="6.33" width="3.02" shape="-11.83,17.91 -14.67,12.26"/>
        <lane id=":4_1_2" index="2" disallow="rail_fast" speed="36.11" length="6.33" width="3.12" shape="-9.10,16.52 -11.90,10.88"/>
    </edge>
    <edge id=":4_4" function="internal">
        <lane id=":4_4_0" index="0" disallow="bus truck rail_fast" speed="36.11" length="6.26" width="2.93" shape="-6.36,15.12 -9.15,9.52"/>
    </edge>
    <edge id=":4_5" function="internal">
        <lane id=":4_5_0" index="0" disallow="bus truck rail_fast" speed="36.11" length="6.22" width="3.03" shape="-3.64,13.74 -6.42,8.17"/>
    </edge>
    <edge id=":5_0" function="internal">
        <lane id=":5_0_0" index="0" disallow="bus truck rail_fast" speed="10.83" length="9.96" width="3.88" shape="-4.30,-30.16 -3.66,-30.00 -3.08,-29.86 -2.55,-29.74 -2.06,-29.64 -1.60,-29.55 -1.18,-29.49 -0.78,-29.45 -0.40,-29.43 -0.03,-29.44 0.34,-29.47 0.70,-29.53 1.07,-29.61 1.46,-29.72 1.86,-29.85 2.29,-30.02 2.75,-30.21 3.25,-30.44 3.79,-30.69 4.38,-30.98"/>
        <lane id=":5_0_1" index="1" disallow="bus truck rail_fast" speed="12.01" length="9.96" width="3.51" shape="-4.43,-26.60 -3.66,-26.42 -2.96,-26.26 -2.31,-26.12 -1.72,-26.00 -1.17,-25.91 -0.66,-25.84 -0.18,-25.80 0.28,-25.78 0.72,-25.79 1.16,-25.83 1.60,-25.90 2.04,-26.00 2.50,-26.13 2.99,-26.30 3.50,-26.50 4.05,-26.73 4.65,-27.00 5.30,-27.31 6.01,-27.66"/>
    </edge>
    <edge id=":5_2" function="internal">
        <lane id=":5_2_0" index="0" disallow="bus truck rail_fast" speed="36.11" length="10.89" width="3.51" shape="-3.65,-22.56 6.01,-27.66"/>
        <lane id=":5_2_1" index="1" disallow="bus truck rail_fast" speed="36.11" length="10.89" width="3.38" shape="-1.90,-19.23 -1.24,-19.70 -0.64,-20.12 -0.10,-20.50 0.40,-20.83 0.86,-21.13 1.29,-21.40 1.69,-21.64 2.08,-21.87 2.46,-22.08 2.84,-22.28 3.23,-22.48 3.63,-22.68 4.06,-22.88 4.51,-23.10 5.01,-23.34 5.55,-23.60 6.15,-23.88 6.81,-24.20 7.54,-24.56"/>
    </edge>
    <edge id=":5_4" function="internal">
        <lane id=":5_4_0" index="0" disallow="rail_fast" speed="36.11" length="13.99" width="3.51" shape="-6.51,-21.40 6.01,-27.66"/>
        <lane id=":5_4_1" index="1" disallow="rail_fast" speed="36.11" length="13.99" width="3.38" shape="-4.99,-18.35 7.54,-24.56"/>
    </edge>
    <edge id=":7_0" function="internal">
        <lane id=":7_0_0" index="0" disallow="rail_fast" speed="36.11" length="3.02" width="3.06" shape="-21.64,4.88 -22.99,2.17"/>
        <lane id=":7_0_1" index="1" disallow="rail_fast" speed="36.11" length="3.02" width="2.99" shape="-18.92,3.55 -20.25,0.83"/>
        <lane id=":7_0_2" index="2" disallow="rail_fast" speed="36.11" length="3.02" width="3.06" shape="-16.17,2.20 -17.50,-0.52"/>
    </edge>
    <edge id=":8_0" function="internal">
        <lane id=":8_0_0" index="0" disallow="rail_fast" speed="36.11" length="0.10" width="3.29" shape="-28.96,-9.88 -28.98,-9.91"/>
        <lane id=":8_0_1" index="1" disallow="rail_fast" speed="36.11" length="0.10" width="2.97" shape="-26.18,-11.31 -26.19,-11.34"/>
        <lane id=":8_0_2" index="2" disallow="rail_fast" speed="36.11" length="0.10" width="3.01" shape="-23.49,-12.69 -23.50,-12.72"/>
    </edge>
    <edge id=":9_0" function="internal">
        <lane id=":9_0_0" index="0" disallow="bus rail_fast" speed="36.11" length="15.32" width="2.85" shape="-29.06,-10.08 -35.86,-23.82"/>
        <lane id=":9_0_1" index="1" disallow="rail_fast" speed="36.11" length="15.32" width="2.97" shape="-26.28,-11.52 -33.01,-25.28"/>
        <lane id=":9_0_2" index="2" disallow="rail_fast" speed="36.11" length="15.32" width="2.96" shape="-23.59,-12.90 -30.34,-26.65"/>
    </edge>
    <edge id=":9_3" function="internal">
        <lane id=":9_3_0" index="0" disallow="bus truck rail_fast" speed="14.99" length="18.43" width="2.96" shape="-19.05,-12.60 -19.77,-12.92 -20.45,-13.28 -21.11,-13.68 -21.75,-14.11 -22.36,-14.59 -22.96,-15.11 -23.54,-15.68 -24.11,-16.29 -24.67,-16.96 -25.22,-17.67 -25.77,-18.44 -26.32,-19.25 -26.87,-20.13 -27.42,-21.06 -27.98,-22.05 -28.55,-23.11 -29.13,-24.22 -29.73,-25.40 -30.34,-26.65"/>
    </edge>
    <edge id=":9_4" function="internal">
        <lane id=":9_4_0" index="0" disallow="bus truck rail_fast" speed="36.11" length="14.16" width="2.85" shape="-29.85,-10.99 -35.86,-23.82"/>
    </edge>

    <edge id="3431" from="1" to="2" priority="1" spreadType="center" length="7.75">
        <lane id="3431_0" index="0" disallow="rail_fast" speed="36.11" length="7.75" width="2.84" customShape="1" shape="1.98,52.35 -0.33,47.79"/>
        <lane id="3431_1" index="1" disallow="rail_fast" speed="36.11" length="7.75" width="3.06" customShape="1" shape="4.65,51.10 2.34,46.44"/>
        <lane id="3431_2" index="2" disallow="rail_fast" speed="36.11" length="7.75" width="3.03" customShape="1" shape="7.36,49.71 5.07,45.06"/>
        <lane id="3431_3" index="3" disallow="rail_fast" speed="36.11" length="7.75" width="3.05" customShape="1" shape="10.11,48.36 7.80,43.69"/>
        <lane id="3431_4" index="4" disallow="rail_fast" speed="36.11" length="7.75" width="3.05" customShape="1" shape="12.86,47.01 10.54,42.30"/>
    </edge>
    <edge id="3438" from="2" to="3" priority="1" spreadType="center" length="8.44">
        <lane id="3438_0" index="0" disallow="rail_fast" speed="36.11" length="8.44" width="2.94" customShape="1" shape="-5.11,42.06 -5.49,41.70"/>
        <lane id="3438_1" index="1" disallow="rail_fast" speed="36.11" length="8.44" width="2.94" customShape="1" shape="-3.64,41.23 -3.83,40.85"/>
        <lane id="3438_2" index="2" disallow="rail_fast" speed="36.11" length="8.44" width="3.05" customShape="1" shape="-1.00,39.73 -1.13,39.46"/>
        <lane id="3438_3" index="3" disallow="rail_fast" speed="36.11" length="8.44" width="3.03" customShape="1" shape="1.66,38.22 1.58,38.06"/>
        <lane id="3438_4" index="4" disallow="rail_fast" speed="36.11" length="8.44" width="3.05" customShape="1" shape="4.32,36.71 4.28,36.62"/>
        <lane id="3438_5" index="5" disallow="rail_fast" speed="36.11" length="8.44" width="3.12" customShape="1" shape="7.55,36.23 7.46,36.05"/>
    </edge>
    <edge id="3450" from="3" to="4" priority="1" spreadType="center" length="24.49">
        <lane id="3450_0" index="0" disallow="rail_fast" speed="36.11" length="24.49" width="3.22" customShape="1" shape="-8.18,39.19 -11.36,32.93 -15.14,25.24 -17.44,20.78"/>
        <lane id="3450_1" index="1" disallow="rail_fast" speed="36.11" length="24.49" width="2.87" customShape="1" shape="-5.35,37.83 -8.36,31.78 -12.18,23.83 -14.48,19.27"/>
        <lane id="3450_2" index="2" disallow="rail_fast" speed="36.11" length="24.49" width="3.00" customShape="1" shape="-2.60,36.50 -5.62,30.45 -9.48,22.50 -11.83,17.91"/>
        <lane id="3450_3" index="3" disallow="rail_fast" speed="36.11" length="24.49" width="3.02" customShape="1" shape="0.13,35.15 -2.96,29.00 -6.84,21.05 -9.10,16.52"/>
        <lane id="3450_4" index="4" disallow="rail_fast" speed="36.11" length="24.49" width="3.02" customShape="1" shape="2.85,33.77 -0.27,27.54 -4.15,19.59 -6.36,15.12"/>
        <lane id="3450_5" index="5" disallow="rail_fast" speed="36.11" length="24.49" width="3.03" customShape="1" shape="5.64,32.36 2.42,26.03 -1.46,18.09 -3.64,13.74"/>
    </edge>
    <edge id="3456" from="15" to="16" priority="1" spreadType="center" length="24.71">
        <lane id="3456_0" index="0" disallow="rail_fast" speed="36.11" length="24.71" width="3.05" customShape="1" shape="3.22,7.00 6.39,13.33 10.24,21.25 13.56,28.25"/>
        <lane id="3456_1" index="1" disallow="rail_fast" speed="36.11" length="24.71" width="2.91" customShape="1" shape="0.41,8.41 3.82,15.10 7.50,22.67 10.89,29.59"/>
        <lane id="3456_2" index="2" disallow="rail_fast" speed="36.11" length="24.71" width="2.89" customShape="1" shape="-2.30,9.76 1.20,16.66 4.98,24.36 8.29,30.89"/>
    </edge>
    <edge id="3462" from="16" to="17" priority="1" spreadType="center" length="8.47">
        <lane id="3462_0" index="0" disallow="rail_fast" speed="36.11" length="8.47" width="3.05" customShape="1" shape="13.66,28.46 16.77,34.54"/>
        <lane id="3462_1" index="1" disallow="rail_fast" speed="36.11" length="8.47" width="2.91" customShape="1" shape="11.00,29.80 14.05,35.90"/>
        <lane id="3462_2" index="2" disallow="rail_fast" speed="36.11" length="8.47" width="2.89" customShape="1" shape="8.41,31.11 11.41,37.22"/>
    </edge>
    <edge id="3470" from="17" to="18" priority="1" spreadType="center" length="7.64">
        <lane id="3470_0" index="0" disallow="rail_fast" speed="36.11" length="7.64" width="3.05" customShape="1" shape="18.15,37.27 20.90,42.81"/>
        <lane id="3470_1" index="1" disallow="rail_fast" speed="36.11" length="7.64" width="3.00" customShape="1" shape="15.42,38.62 18.18,44.16"/>
        <lane id="3470_2" index="2" disallow="rail_fast" speed="36.11" length="7.64" width="2.94" customShape="1" shape="12.75,39.94 15.50,45.53"/>
    </edge>
    <edge id="3479" from="13" to="14" priority="1" spreadType="center" length="22.65">
        <lane id="3479_0" index="0" disallow="rail_fast" speed="36.11" length="22.65" width="3.23" customShape="1" shape="-59.71,5.77 -58.57,5.19 -48.99,0.44 -41.05,-3.51"/>
        <lane id="3479_1" index="1" disallow="bus rail_fast" speed="36.11" length="22.65" width="3.02" customShape="1" shape="-58.30,8.56 -57.14,7.97 -47.56,3.22 -39.66,-0.71"/>
        <lane id="3479_2" index="2" disallow="bus rail_fast" speed="36.11" length="22.65" width="3.06" customShape="1" shape="-56.92,11.27 -55.73,10.66 -46.15,5.91 -38.31,2.02"/>
    </edge>
    <edge id="3487" from="11" to="12" priority="1" spreadType="center" length="21.43">
        <lane id="3487_0" index="0" disallow="rail_fast" speed="36.11" length="21.43" width="4.58" acceleration="1" customShape="1" shape="-31.79,11.67 -41.75,16.47 -50.59,21.29 -51.48,21.77"/>
        <lane id="3487_1" index="1" disallow="rail_fast" speed="36.11" length="21.43" width="3.11" customShape="1" shape="-33.63,7.24 -43.64,12.62 -52.29,17.79 -53.32,18.41"/>
        <lane id="3487_2" index="2" disallow="rail_fast" speed="36.11" length="21.43" width="3.66" customShape="1" shape="-34.93,4.10 -45.17,9.59 -53.82,14.76 -54.94,15.44"/>
    </edge>
    <edge id="3495" from="5" to="6" priority="1" spreadType="center" length="15.18">
        <lane id="3495_0" index="0" disallow="rail_fast" speed="36.11" length="15.18" width="3.88" customShape="1" shape="4.38,-30.98 13.28,-35.36 18.19,-37.78"/>
        <lane id="3495_1" index="1" disallow="rail_fast" speed="36.11" length="15.18" width="3.51" customShape="1" shape="6.01,-27.66 14.91,-32.03 19.83,-34.45"/>
        <lane id="3495_2" index="2" disallow="rail_fast" speed="36.11" length="15.18" width="3.38" customShape="1" shape="7.54,-24.56 16.40,-28.92 21.35,-31.35"/>
    </edge>
    <edge id="3502" from="21" to="22" priority="1" spreadType="center" length="11.54">
        <lane id="3502_0" index="0" disallow="rail_fast" speed="36.11" length="11.54" width="3.61" customShape="1" shape="25.89,-22.10 20.84,-19.63 19.15,-18.80"/>
        <lane id="3502_1" index="1" disallow="rail_fast" speed="36.11" length="11.54" width="3.63" customShape="1" shape="24.29,-25.37 19.31,-22.93 17.56,-22.08"/>
    </edge>
    <edge id="3528" from="22" to="23" priority="1" spreadType="center" length="6.58">
        <lane id="3528_0" index="0" disallow="rail_fast" speed="36.11" length="6.58" width="3.25" customShape="1" shape="13.01,-13.63 11.67,-11.81"/>
        <lane id="3528_1" index="1" disallow="rail_fast" speed="36.11" length="6.58" width="3.60" customShape="1" shape="11.91,-15.24 10.19,-14.38"/>
        <lane id="3528_2" index="2" disallow="rail_fast" speed="36.11" length="6.58" width="3.67" customShape="1" shape="9.86,-18.28 8.38,-17.55"/>
    </edge>
    <edge id="3534" from="23" to="24" priority="1" spreadType="center" length="6.61">
        <lane id="3534_0" index="0" disallow="rail_fast" speed="36.11" length="6.61" width="3.19" customShape="1" shape="8.63,-9.82 6.01,-8.55"/>
        <lane id="3534_1" index="1" disallow="rail_fast" speed="36.11" length="6.61" width="3.52" customShape="1" shape="7.16,-12.88 4.56,-11.59"/>
        <lane id="3534_2" index="2" disallow="rail_fast" speed="36.11" length="6.61" width="3.68" customShape="1" shape="5.58,-16.15 3.00,-14.85"/>
    </edge>
    <edge id="3542" from="9" to="10" priority="1" spreadType="center" length="42.05">
        <lane id="3542_0" index="0" disallow="bus rail_fast" speed="36.11" length="42.05" width="2.85" customShape="1" shape="-35.86,-23.82 -39.23,-30.74 -43.28,-39.67 -47.06,-48.38 -50.68,-57.63 -52.08,-61.03"/>
        <lane id="3542_1" index="1" disallow="rail_fast" speed="36.11" length="42.05" width="2.97" customShape="1" shape="-33.01,-25.28 -36.47,-32.24 -40.55,-41.03 -44.29,-49.72 -47.95,-58.84 -49.29,-62.18"/>
        <lane id="3542_2" index="2" disallow="rail_fast" speed="36.11" length="42.05" width="2.96" customShape="1" shape="-30.34,-26.65 -33.80,-33.76 -37.85,-42.48 -41.62,-51.17 -45.12,-59.97 -46.45,-63.34"/>
    </edge>
    <edge id="3573" from="27" to="28" priority="1" spreadType="center" length="41.48">
        <lane id="3573_0" index="0" disallow="rail_fast" speed="36.11" length="41.48" width="3.35" customShape="1" shape="-31.36,-71.01 -29.70,-67.68 -25.44,-59.10 -21.01,-50.17 -16.71,-41.71 -13.48,-35.81"/>
        <lane id="3573_1" index="1" disallow="rail_fast" speed="36.11" length="41.48" width="2.88" customShape="1" shape="-34.22,-69.60 -32.47,-66.11 -28.28,-57.74 -23.74,-48.67 -19.52,-40.24 -16.54,-34.21"/>
        <lane id="3573_2" index="2" disallow="rail_fast" speed="36.11" length="41.48" width="3.08" customShape="1" shape="-36.94,-68.26 -35.16,-64.71 -30.97,-56.34 -26.43,-47.27 -22.21,-38.84 -19.27,-32.77"/>
        <lane id="3573_3" index="3" disallow="rail_fast" speed="36.11" length="41.48" width="2.82" customShape="1" shape="-39.63,-66.94 -37.83,-63.35 -33.64,-54.98 -29.10,-45.91 -24.93,-37.44 -21.96,-31.35"/>
        <lane id="3573_4" index="4" disallow="rail_fast" speed="36.11" length="41.48" width="3.05" customShape="1" shape="-42.34,-65.61 -40.53,-61.93 -36.34,-53.55 -31.80,-44.49 -27.63,-36.01 -24.65,-29.94"/>
    </edge>
    <edge id="3600" from="14" to="9" priority="1" spreadType="center" length="24.20">
        <lane id="3600_0" index="0" disallow="bus truck rail_fast" speed="36.11" length="24.20" width="3.23" customShape="1" shape="-29.76,-10.81 -29.85,-10.99"/>
    </edge>
    <edge id="3602" from="24" to="15" priority="1" spreadType="center" length="16.41">
        <lane id="3602_0" index="0" disallow="bus truck rail_fast" speed="36.11" length="16.41" width="2.93" customShape="1" shape="2.98,-6.54 2.42,-5.95"/>
    </edge>
    <edge id="3604" from="4" to="11" priority="1" spreadType="center" length="15.84">
        <lane id="3604_0" index="0" disallow="bus truck rail_fast" speed="36.11" length="15.84" width="3.84" customShape="1" shape="-20.53,15.71 -21.53,14.47 -22.92,13.07 -24.80,11.84 -26.50,11.25 -28.30,11.06 -30.22,11.28 -39.65,14.34"/>
    </edge>