<!-- generated on 2020-12-18 16:44:59.777123 by ipykernel_launcher.py v1_2_0+5214-53edc58fcd
-->
<connections>
	<connection contPos="-4.0" from="7487" fromLane="0" keepClear="true" to="7527" toLane="0"/>
	<connection contPos="-4.0" from="7487" fromLane="0" keepClear="true" to="7522" toLane="0"/>
	<connection contPos="-4.0" from="7488" fromLane="0" keepClear="true" to="7506" toLane="0"/>
	<connection contPos="-4.0" from="7490" fromLane="1" keepClear="true" to="7528" toLane="1"/>
	<connection contPos="-4.0" from="7490" fromLane="0" keepClear="true" to="7510" toLane="0"/>
	<connection contPos="-4.0" from="7490" fromLane="0" keepClear="true" to="7528" toLane="0"/>
	<connection contPos="-4.0" from="7493" fromLane="0" keepClear="true" to="7511" toLane="0"/>
	<connection contPos="-4.0" from="7493" fromLane="0" keepClear="true" to="7520" toLane="0"/>
	<connection contPos="-4.0" from="7494" fromLane="0" keepClear="true" to="7526" toLane="0"/>
	<connection contPos="-4.0" from="7495" fromLane="0" keepClear="true" to="7529" toLane="0"/>
	<connection contPos="-4.0" from="7495" fromLane="0" keepClear="true" to="7512" toLane="0"/>
	<connection contPos="-4.0" from="7496" fromLane="0" keepClear="true" to="7515" toLane="0"/>
	<connection contPos="-4.0" from="7496" fromLane="0" keepClear="true" to="7508" toLane="0"/>
	<connection contPos="-4.0" from="7497" fromLane="0" keepClear="true" to="7518" toLane="0"/>
	<connection contPos="-4.0" from="7497" fromLane="0" keepClear="true" to="7525" toLane="0"/>
	<connection contPos="-4.0" from="7499" fromLane="0" keepClear="true" to="7513" toLane="0"/>
	<connection contPos="-4.0" from="7499" fromLane="0" keepClear="true" to="7517" toLane="0"/>
	<connection contPos="-4.0" from="7500" fromLane="0" keepClear="true" to="7507" toLane="0"/>
	<connection contPos="-4.0" from="7502" fromLane="1" keepClear="true" to="7524" toLane="1"/>
	<connection contPos="-4.0" from="7502" fromLane="1" keepClear="true" to="7509" toLane="0"/>
	<connection contPos="-4.0" from="7502" fromLane="0" keepClear="true" to="7524" toLane="0"/>
	<connection contPos="-4.0" from="7502" fromLane="0" keepClear="true" to="7516" toLane="0"/>
	<connection contPos="-4.0" from="7505" fromLane="0" keepClear="true" to="7521" toLane="0"/>
	<connection contPos="-4.0" from="7505" fromLane="0" keepClear="true" to="7514" toLane="0"/>
	<connection contPos="-4.0" from="7506" fromLane="0" keepClear="true" to="7494" toLane="0"/>
	<connection contPos="-4.0" from="7507" fromLane="0" keepClear="true" to="7491" toLane="0"/>
	<connection contPos="-4.0" from="7508" fromLane="0" keepClear="true" to="7488" toLane="0"/>
	<connection contPos="-4.0" from="7509" fromLane="0" keepClear="true" to="7492" toLane="0"/>
	<connection contPos="-4.0" from="7510" fromLane="0" keepClear="true" to="7500" toLane="0"/>
	<connection contPos="-4.0" from="7511" fromLane="0" keepClear="true" to="7490" toLane="1"/>
	<connection contPos="-4.0" from="7512" fromLane="0" keepClear="true" to="7492" toLane="0"/>
	<connection contPos="-4.0" from="7513" fromLane="0" keepClear="true" to="7495" toLane="0"/>
	<connection contPos="-4.0" from="7514" fromLane="0" keepClear="true" to="7504" toLane="1"/>
	<connection contPos="-4.0" from="7515" fromLane="0" keepClear="true" to="7498" toLane="0"/>
	<connection contPos="-4.0" from="7516" fromLane="0" keepClear="true" to="7496" toLane="0"/>
	<connection contPos="-4.0" from="7517" fromLane="0" keepClear="true" to="7488" toLane="0"/>
	<connection contPos="-4.0" from="7518" fromLane="0" keepClear="true" to="7487" toLane="0"/>
	<connection contPos="-4.0" from="7524" fromLane="1" keepClear="true" to="7490" toLane="1"/>
	<connection contPos="-4.0" from="7520" fromLane="0" keepClear="true" to="7496" toLane="0"/>
	<connection contPos="-4.0" from="7521" fromLane="0" keepClear="true" to="7500" toLane="0"/>
	<connection contPos="-4.0" from="7522" fromLane="0" keepClear="true" to="7498" toLane="0"/>
	<connection contPos="-4.0" from="7528" fromLane="1" keepClear="true" to="7504" toLane="1"/>
	<connection contPos="-4.0" from="7524" fromLane="0" keepClear="true" to="7490" toLane="0"/>
	<connection contPos="-4.0" from="7525" fromLane="0" keepClear="true" to="7494" toLane="0"/>
	<connection contPos="-4.0" from="7526" fromLane="0" keepClear="true" to="7491" toLane="0"/>
	<connection contPos="-4.0" from="7527" fromLane="0" keepClear="true" to="7495" toLane="0"/>
	<connection contPos="-4.0" from="7528" fromLane="0" keepClear="true" to="7504" toLane="0"/>
	<connection contPos="-4.0" from="7529" fromLane="0" keepClear="true" to="7490" toLane="0"/>
</connections>
