<!-- generated on 2020-12-18 15:55:13.112190 by ipykernel_launcher.py v1_2_0+5214-53edc58fcd
-->
<edges>
	<edge from="1" function="normal" id="39" length="41.95091760637272" numLanes="5" priority="1" speed="36.11111111111111" spreadType="center" to="2">
		<lane allow="moped bicycle pedestrian custom1 trailer evehicle rail_urban ship private vip custom2 authority delivery rail_electric taxi tram army hov coach motorcycle passenger rail emergency" index="0" length="41.95091760637272" shape="-64.47645,38.62745 -64.2939,38.472049999999996 -63.640950000000004,37.8922 -63.5927,37.850049999999996 -61.0114,35.57795 -60.87595,35.45825 -60.1756,34.83485 -60.07725,34.75185 -57.9076,32.90715 -57.20305,32.3036 -56.526650000000004,31.6969 -56.46025,31.639450000000004 -53.9127,29.4262 -53.23585,28.8191 -53.18729999999999,28.77645 -50.3902,26.315800000000003 -50.2359,26.1777 -49.739599999999996,25.73475 -49.671549999999996,25.675800000000002 -47.16605,23.5041 -46.92425,23.2919 -46.235749999999996,22.67125 -46.189449999999994,22.630499999999998 -43.5376,20.29345 -42.8172,19.64405 -40.03055,17.1967 -39.3102,16.5473 -39.0266,16.301949999999998 -36.509249999999994,14.143450000000001 -36.13725,13.812850000000001 -35.847049999999996,13.55365 -35.79705,13.5099 -32.92335,10.98695 -32.92175,10.98555" speed="36.11111111111111" width="3.4488983313516233"/>
		<lane allow="moped bicycle pedestrian custom1 trailer evehicle rail_urban ship private vip custom2 authority delivery rail_electric taxi tram army hov coach motorcycle passenger rail emergency" index="1" length="41.95091760637272" shape="-62.22085,41.27785 -58.9427,38.496300000000005 -58.89505,38.4551 -58.6091,38.207899999999995 -55.907399999999996,35.8594 -55.582300000000004,35.5677 -48.2756,28.986 -47.94205,28.6939 -47.9248,28.67895 -45.277649999999994,26.3777 -44.920500000000004,26.06295 -37.1154,19.10465 -36.86515,18.88425 -36.835899999999995,18.858800000000002 -34.11195,16.490650000000002 -33.88635,16.29665 -30.6569,13.5216" speed="36.11111111111111" width="3.234963531479144"/>
		<lane allow="moped bicycle pedestrian custom1 trailer evehicle rail_urban ship private truck vip custom2 authority delivery rail_electric taxi tram army hov coach motorcycle passenger rail emergency" index="2" length="41.95091760637272" shape="-60.10575,43.7631 -58.910399999999996,42.74615 -56.7618,40.9214 -53.77355,38.3296 -50.22775,35.1661 -47.272450000000006,32.522800000000004 -46.1766,31.54345 -46.10315,31.4797 -43.113600000000005,28.8842 -39.3823,25.6047 -36.4044,22.98185 -36.377399999999994,22.95785 -34.87865,21.6276 -31.898249999999997,19.01625 -28.43145,16.0135" speed="36.11111111111111" width="3.049599213011436"/>
		<lane allow="moped bicycle pedestrian custom1 trailer evehicle rail_urban ship private vip custom2 authority delivery rail_electric taxi tram army hov coach motorcycle passenger rail emergency" index="3" length="41.95091760637272" shape="-57.980199999999996,46.26065 -56.7945,45.230000000000004 -56.570449999999994,45.035650000000004 -48.18795,37.841750000000005 -48.1642,37.8211 -47.917550000000006,37.60745 -45.17815,35.2261 -44.902,34.98065 -37.264250000000004,28.21915 -37.120149999999995,28.0941 -34.2761,25.621850000000002 -34.1297,25.494549999999997 -26.1826,18.53165" speed="36.11111111111111" width="3.2801225967942123"/>
		<lane allow="moped bicycle pedestrian custom1 trailer evehicle rail_urban ship private vip custom2 authority delivery rail_electric taxi tram army hov coach motorcycle passenger rail emergency" index="4" length="41.95091760637272" shape="-55.740449999999996,48.89235 -54.3065,47.645849999999996 -53.90005,47.296350000000004 -45.8877,40.47735 -45.5089,40.1517 -45.4815,40.127849999999995 -42.881699999999995,37.86815 -42.572950000000006,37.594750000000005 -42.52095,37.547650000000004 -35.0172,30.755699999999997 -34.65575,30.435499999999998 -32.0561,28.17565 -31.665300000000002,27.83595 -23.90095,21.08655" speed="36.11111111111111" width="3.481983311275338"/>
	</edge>
	<edge from="2" function="normal" id="24" length="254.8935980274722" numLanes="5" priority="1" speed="36.11111111111111" spreadType="center" to="3">
		<lane allow="moped bicycle pedestrian custom1 trailer evehicle rail_urban ship private vip custom2 authority delivery rail_electric taxi tram army hov coach motorcycle passenger rail emergency" index="0" length="254.8935980274722" shape="-32.92175,10.98555 -28.209249999999997,6.871449999999999 -25.2245,4.266 -25.212699999999998,4.25565 -17.0916,-2.86705 -14.10655,-5.47275 -6.1511499999999995,-12.479800000000001 -4.8614500000000005,-13.60565 -3.1933,-15.066749999999999 4.8741,-22.12505 7.8576999999999995,-24.738599999999998 9.4255,-26.1142 9.44715,-26.133000000000003 15.8539,-31.699849999999998 18.8471,-34.2963 22.00835,-37.04285 26.63175,-41.0878 29.6116,-43.690799999999996 29.624299999999998,-43.70195 37.263149999999996,-50.404399999999995 40.2351,-53.0005 42.4468,-54.925700000000006 48.01785,-59.7968 48.0411,-59.817350000000005 51.0059,-62.41875 51.0369,-62.446349999999995 59.2367,-69.73165 62.1879,-72.32145 64.0944,-73.98865 64.1249,-74.01509999999999 69.9071,-79.03025 69.9197,-79.04125 72.9065,-81.64105 80.7778,-88.46255 80.7928,-88.4756 82.3674,-89.84615 83.79775000000001,-91.08285000000001 91.90465,-98.18565000000001 94.90199999999999,-100.7772 98.95295,-104.30160000000001 102.71289999999999,-107.6037 105.68674999999999,-110.1995 108.71690000000001,-112.84190000000001 108.73695000000001,-112.8592 114.00659999999999,-117.41145 117.00395,-120.00315 118.4084,-121.18535 118.47229999999999,-121.2379 122.3617,-124.43440000000001 125.0462,-126.65665 128.06355,-129.224 136.02205,-135.69150000000002 136.12040000000002,-135.7754 137.35444999999999,-136.82295 139.13715000000002,-138.3207 147.51865,-145.06725 147.54534999999998,-145.089 148.94015000000002,-146.22065 150.71275,-147.60014999999999 159.70165,-154.32745 160.45004999999998,-154.91230000000002 161.31545,-155.5983" speed="36.11111111111111" width="3.507394384724935"/>
		<lane allow="moped bicycle pedestrian custom1 trailer evehicle rail_urban ship private vip custom2 authority delivery rail_electric taxi tram army hov coach motorcycle passenger rail emergency" index="1" length="254.8935980274722" shape="-30.6569,13.5216 -25.974899999999998,9.49765 -25.86,9.399049999999999 -25.831049999999998,9.373899999999999 -22.94,6.861000000000001 -22.8585,6.7898 -14.86015,-0.21509999999999996 -14.824349999999999,-0.24634999999999996 -14.8127,-0.25649999999999995 -11.858450000000001,-2.82465 -11.81665,-2.8611999999999997 -3.8740500000000004,-9.8596 -3.8579,-9.873650000000001 -3.7725999999999997,-9.9482 -0.8780000000000001,-12.46445 -0.7793000000000001,-12.55015 7.2170499999999995,-19.5031 7.568149999999999,-19.80875 10.205400000000001,-22.101300000000002 10.5563,-22.406750000000002 18.1461,-29.082549999999998 18.24045,-29.16525 21.1237,-31.6716 21.225050000000003,-31.759900000000002 28.91575,-38.3237 30.15085,-39.375600000000006 30.20345,-39.421350000000004 31.99995,-40.982150000000004 33.186899999999994,-42.018550000000005 39.62335,-47.7609 40.61925,-48.644949999999994 42.57715,-50.3469 43.615899999999996,-51.2466 50.37675,-57.2394 51.7579,-58.467349999999996 53.3266,-59.831 54.69714999999999,-61.03715 61.522549999999995,-66.9724 61.5689,-67.012 62.843450000000004,-68.1071 62.87505,-68.1345 64.5972,-69.63130000000001 65.8725,-70.73585 72.3021,-76.31175 73.8769,-77.6824 75.29015000000001,-78.9109 76.8758,-80.28325 83.17750000000001,-85.7433 85.20435,-87.50715 86.16565,-88.3428 88.1344,-90.07679999999999 88.16635,-90.10535 94.2358,-95.52085 95.92775,-97.01060000000001 97.20095,-98.11734999999999 98.89095,-99.59545 98.90865,-99.61115000000001 105.01044999999999,-104.99255 106.97274999999999,-106.71255 107.9837,-107.59135 109.96515,-109.31219999999999 116.27115,-114.79395 117.85215,-116.1696 119.25980000000001,-117.3933 120.89439999999999,-118.77515 127.21925,-123.876 129.7264,-125.95075 129.838,-126.0469 130.3615,-126.49785 130.43545,-126.5572 132.9503,-128.64565 138.36865,-132.97715 141.30705,-135.43685 141.41395,-135.52255 149.8324,-142.27165 152.48915,-144.41785 152.91735,-144.7646 155.66735,-146.9028 161.80225000000002,-151.44355000000002 163.49355,-152.74540000000002" speed="36.11111111111111" width="3.1182990876437753"/>
		<lane allow="moped bicycle pedestrian custom1 trailer evehicle rail_urban ship private vip custom2 authority delivery rail_electric taxi tram army hov coach motorcycle passenger rail emergency" index="2" length="254.8935980274722" shape="-28.43145,16.0135 -28.1288,15.75195 -25.1237,13.169599999999999 -23.6274,11.8537 -20.6663,9.2219 -17.03515,5.98625 -14.05435,3.3881 -12.7774,2.2938 -9.75975,-0.28425 -6.0581,-3.4601499999999996 -6.0100999999999996,-3.5021 -3.01915,-6.1129999999999995 -1.54385,-7.4169 1.4309,-10.0341 5.36695,-13.501999999999999 8.352,-16.10065 9.73325,-17.3016 12.7289,-19.9023 16.08905,-22.84895 19.069200000000002,-25.4658 20.391550000000002,-26.6249 20.41905,-26.64875 23.41455,-29.247799999999998 27.5533,-32.766999999999996 30.5689,-35.33645 32.395450000000004,-36.8768 35.3743,-39.4397 38.5525,-42.23205 38.60355,-42.27785 41.53875,-44.88365 41.581900000000005,-44.92255 42.87375,-46.0848 45.847350000000006,-48.7046 49.756699999999995,-52.2286 52.681200000000004,-54.83005 52.7225,-54.8673 53.915549999999996,-55.938199999999995 53.9636,-55.980199999999996 56.929,-58.583600000000004 60.93575,-62.05655 63.94175,-64.6377 65.07475,-65.61485 68.0599,-68.22055 72.26575,-71.89635 75.25455,-74.49780000000001 76.0497,-75.19265 79.035,-77.79804999999999 83.0058,-81.26740000000001 85.9948,-83.8686 87.34925,-85.05445 90.3319,-87.66284999999999 93.93655,-90.8561 96.8951,-93.4615 98.06264999999999,-94.4898 98.09455,-94.51755 101.08485,-97.1173 105.0962,-100.63335000000001 108.0757,-103.245 109.10305,-104.13655 109.1378,-104.1663 112.12755,-106.73804999999999 116.48705000000001,-110.4907 116.51635,-110.5162 119.50450000000001,-113.1159 120.06605,-113.60365 123.06595,-116.20685 127.86685,-120.1771 130.91485,-122.7038 131.8918,-123.46090000000001 134.83645,-125.85265000000001 134.9715,-125.95745 139.1463,-129.22854999999998 142.1852,-131.77235000000002 150.68185,-138.53735 153.7186,-141.07945 154.52105,-141.71015 157.6253,-144.15305 157.73035,-144.23135000000002 162.25754999999998,-147.6238 165.39434999999997,-150.04125 165.49915,-150.11855" speed="36.11111111111111" width="3.0768356943457293"/>
		<lane allow="moped bicycle pedestrian custom1 trailer evehicle rail_urban ship private vip custom2 authority delivery rail_electric taxi tram army hov coach motorcycle passenger rail emergency" index="3" length="254.8935980274722" shape="-26.1826,18.53165 -25.9501,18.327849999999998 -25.9319,18.31205 -25.8324,18.2254 -22.93985,15.71095 -15.109300000000001,8.64475 -14.94415,8.497300000000001 -14.889400000000002,8.449549999999999 -12.07565,6.002549999999999 -11.93725,5.8833 -11.901499999999999,5.85315 -3.82075,-0.9812000000000001 -3.6983,-1.0865 -3.67305,-1.1084 -0.81705,-3.5909000000000004 -0.7283,-3.66885 -0.7076,-3.6871 7.3583,-10.8154 7.5245999999999995,-10.9619 7.55485,-10.988299999999999 10.3824,-13.44655 10.558150000000001,-13.60105 18.30975,-20.40235 18.52225,-20.588900000000002 21.28605,-22.99145 21.5154,-23.190399999999997 29.6668,-30.1704 29.689999999999998,-30.19045 29.7166,-30.2134 32.6835,-32.79235 32.72745,-32.831 40.608050000000006,-39.6773 40.8086,-39.84995 43.58685,-42.26505 43.810950000000005,-42.46215 51.68855,-49.4776 51.9696,-49.725449999999995 52.00195,-49.753550000000004 54.699749999999995,-52.09915 54.976299999999995,-52.33845 62.81805,-59.18925 62.841,-59.209450000000004 63.12375,-59.457499999999996 63.148700000000005,-59.479200000000006 65.8552,-61.83215 66.14065,-62.08055 73.8278,-68.799 74.4615,-69.35210000000001 74.4721,-69.3613 76.8298,-71.4109 77.475,-71.97900000000001 85.1753,-78.7835 88.16125,-81.37915 96.1375,-88.3237 96.16815,-88.35024999999999 96.1847,-88.3647 99.1608,-90.9517 99.1752,-90.9643 107.10865,-97.9374 107.32865,-98.12865 110.09909999999999,-100.53694999999999 110.28829999999999,-100.70009999999999 110.3123,-100.72059999999999 118.24775,-107.48835 118.7657,-107.93395000000001 121.2273,-110.07374999999999 121.71754999999999,-110.49545 129.63279999999997,-117.28885 129.65765,-117.3104 129.99880000000002,-117.6062 132.6448,-119.90639999999999 132.7516,-119.99924999999999 132.95204999999999,-120.1543 141.26184999999998,-126.5724 144.3093,-129.21665000000002 152.79605,-135.84565 152.8322,-135.87470000000002 155.7088,-138.28654999999998 155.88815,-138.43075 164.30599999999998,-144.90355 164.42815,-144.99955 164.48995,-145.04955 167.41789999999997,-147.4194 167.5078,-147.48770000000002" speed="36.11111111111111" width="3.232603671964753"/>
		<lane allow="moped bicycle pedestrian custom1 trailer evehicle rail_urban ship private vip custom2 authority delivery rail_electric taxi tram army hov coach motorcycle passenger rail emergency" index="4" length="254.8935980274722" shape="-23.90095,21.08655 -23.5828,20.80995 -23.192,20.47025 -20.59235,18.21045 -20.26415,17.920900000000003 -20.224449999999997,17.8853 -12.769449999999999,11.2025 -12.40105,10.87755 -9.801400000000001,8.61765 -9.395700000000001,8.26865 -1.43785,1.4890999999999999 -1.0585,1.16275 -1.0324,1.14005 1.5674000000000001,-1.11965 1.9399499999999998,-1.445 1.95165,-1.45525 9.6765,-8.2311 10.0607,-8.56655 12.66035,-10.8264 13.00815,-11.1318 13.0355,-11.1561 20.77385,-18.02655 21.14925,-18.35625 23.7489,-20.61605 24.15905,-20.9678 31.948349999999998,-27.564 32.3243,-27.88635 32.3581,-27.91575 34.958,-30.17535 35.3093,-30.483649999999997 35.33455,-30.506050000000002 42.816100000000006,-37.13765 43.1926,-37.468149999999994 45.7923,-39.72795 46.13935,-40.0328 46.16715,-40.057500000000005 53.94055,-46.9615 54.31565,-47.290949999999995 56.91535,-49.55085 57.31285,-49.894800000000004 65.12315,-56.6228 65.50880000000001,-56.956500000000005 65.5206,-56.966750000000005 68.1203,-59.226600000000005 68.506,-59.5623 76.11675,-66.19485 76.50569999999999,-66.53335 79.10534999999999,-68.79325 79.44555,-69.0925 79.4777,-69.12115 87.44155,-76.21825000000001 87.8142,-76.54605000000001 90.41385,-78.80595 90.81125,-79.1498 98.45795,-85.738 98.84370000000001,-86.0718 98.85525,-86.08185 101.45490000000001,-88.3417 101.8008,-88.64555 101.82939999999999,-88.67095 109.36645,-95.36914999999999 109.74115,-95.69835 112.3408,-97.95814999999999 112.744,-98.30565 120.45665,-104.89845 120.83795,-105.22705 120.8597,-105.24595 123.45945,-107.50575 123.8666,-107.85565 131.90370000000001,-114.69055 132.282,-115.0157 132.31040000000002,-115.0404 134.9102,-117.3001 135.37895,-117.6842 143.45245,-124.0124 143.7846,-124.28375 143.91494999999998,-124.39675 146.5174,-126.6534 146.9974,-127.04425 154.92455,-133.19209999999998 155.3971,-133.56615 155.45315,-133.61149999999998 158.03625,-135.70225 158.57015,-136.12385 166.62965,-142.34455 167.09955,-142.7155 167.1617,-142.7658 169.60385,-144.7423" speed="36.11111111111111" width="3.4515101767197436"/>
	</edge>
</edges>
