<!-- generated on 2020-12-18 15:55:13.187959 by ipykernel_launcher.py v1_2_0+5214-53edc58fcd
-->
<nodes>
	<node id="1" type="from" x="-60.10473999999999" y="43.76428"/>
	<node id="2" type="to" x="-28.41873" y="16.02777"/>
	<node id="3" type="to" x="165.48395999999997" y="-150.13845"/>
</nodes>
