<?xml version="1.0" encoding="UTF-8"?>

<!-- generated on Fri Dec 18 15:55:13 2020 by Eclipse SUMO netconvert Version 1.8.0
<configuration xmlns:xsi="http://www.w3.org/2001/XMLSchema-instance" xsi:noNamespaceSchemaLocation="http://sumo.dlr.de/xsd/netconvertConfiguration.xsd">

    <input>
        <node-files value="./converted_scenarios/NGSIM/US101/USA_US101-2_1_I-1-1/nodes.net.xml"/>
        <edge-files value="./converted_scenarios/NGSIM/US101/USA_US101-2_1_I-1-1/edges.net.xml"/>
        <connection-files value="./converted_scenarios/NGSIM/US101/USA_US101-2_1_I-1-1/_connections.net.xml"/>
        <tllogic-files value="./converted_scenarios/NGSIM/US101/USA_US101-2_1_I-1-1/_tll.net.xml"/>
    </input>

    <output>
        <output-file value="./converted_scenarios/NGSIM/US101/USA_US101-2_1_I-1-1/USA_US101-2_1_I-1-1.net.xml"/>
    </output>

    <processing>
        <plain.extend-edge-shape value="true"/>
        <geometry.remove.keep-edges.explicit value="true"/>
        <geometry.avoid-overlap value="true"/>
        <offset.disable-normalization value="true"/>
    </processing>

    <junctions>
        <no-turnarounds value="true"/>
        <junctions.internal-link-detail value="20"/>
    </junctions>

    <report>
        <aggregate-warnings value="5"/>
    </report>

    <random_number>
        <seed value="1234"/>
    </random_number>

</configuration>
-->

<net version="1.6" junctionCornerDetail="5" junctionLinkDetail="20" limitTurnSpeed="5.50" xmlns:xsi="http://www.w3.org/2001/XMLSchema-instance" xsi:noNamespaceSchemaLocation="http://sumo.dlr.de/xsd/net_file.xsd">

    <location netOffset="0.00,0.00" convBoundary="-60.10,-150.14,165.48,43.76" origBoundary="-64.48,-155.60,169.60,48.89" projParameter="!"/>

    <edge id=":2_0" function="internal">
        <lane id=":2_0_0" index="0" disallow="bus truck rail_fast" speed="36.11" length="3.17" width="3.51" shape="-34.11,12.03 -31.73,9.94"/>
        <lane id=":2_0_1" index="1" disallow="bus truck rail_fast" speed="36.11" length="3.17" width="3.12" shape="-31.86,14.56 -29.46,12.49"/>
        <lane id=":2_0_2" index="2" disallow="bus truck rail_fast" speed="36.11" length="3.17" width="3.08" shape="-29.64,17.06 -27.24,14.99"/>
        <lane id=":2_0_3" index="3" disallow="bus truck rail_fast" speed="36.11" length="3.17" width="3.23" shape="-27.39,19.59 -25.00,17.51"/>
        <lane id=":2_0_4" index="4" disallow="bus truck rail_fast" speed="36.11" length="3.17" width="3.45" shape="-25.12,22.14 -22.73,20.07"/>
    </edge>

    <edge id="24" from="2" to="3" priority="1" spreadType="center" length="254.89">
        <lane id="24_0" index="0" disallow="bus truck rail_fast" speed="36.11" length="254.89" width="3.51" customShape="1" shape="-31.73,9.94 -28.21,6.87 -25.22,4.27 -17.09,-2.87 -14.11,-5.47 -6.15,-12.48 -4.86,-13.61 -3.19,-15.07 4.87,-22.13 7.86,-24.74 9.43,-26.11 15.85,-31.70 18.85,-34.30 22.01,-37.04 26.63,-41.09 29.61,-43.69 37.26,-50.40 40.24,-53.00 42.45,-54.93 48.02,-59.80 51.01,-62.42 59.24,-69.73 62.19,-72.32 64.09,-73.99 69.91,-79.03 72.91,-81.64 80.78,-88.46 82.37,-89.85 83.80,-91.08 91.90,-98.19 94.90,-100.78 98.95,-104.30 102.71,-107.60 105.69,-110.20 108.72,-112.84 114.01,-117.41 117.00,-120.00 118.41,-121.19 122.36,-124.43 125.05,-126.66 128.06,-129.22 136.02,-135.69 136.12,-135.78 137.35,-136.82 139.14,-138.32 147.52,-145.07 148.94,-146.22 150.71,-147.60 159.70,-154.33 160.45,-154.91 161.22,-155.52"/>
        <lane id="24_1" index="1" disallow="bus truck rail_fast" speed="36.11" length="254.89" width="3.12" customShape="1" shape="-29.46,12.49 -25.97,9.50 -25.86,9.40 -22.94,6.86 -22.86,6.79 -14.86,-0.22 -11.86,-2.82 -3.87,-9.86 -3.77,-9.95 -0.88,-12.46 -0.78,-12.55 7.22,-19.50 7.57,-19.81 10.21,-22.10 10.56,-22.41 18.15,-29.08 18.24,-29.17 21.12,-31.67 21.23,-31.76 28.92,-38.32 30.15,-39.38 32.00,-40.98 33.19,-42.02 39.62,-47.76 40.62,-48.64 42.58,-50.35 43.62,-51.25 50.38,-57.24 51.76,-58.47 53.33,-59.83 54.70,-61.04 61.52,-66.97 62.84,-68.11 64.60,-69.63 65.87,-70.74 72.30,-76.31 73.88,-77.68 75.29,-78.91 76.88,-80.28 83.18,-85.74 85.20,-87.51 86.17,-88.34 88.13,-90.08 94.24,-95.52 95.93,-97.01 97.20,-98.12 98.89,-99.60 105.01,-104.99 106.97,-106.71 107.98,-107.59 109.97,-109.31 116.27,-114.79 117.85,-116.17 119.26,-117.39 120.89,-118.78 127.22,-123.88 129.73,-125.95 129.84,-126.05 130.36,-126.50 132.95,-128.65 138.37,-132.98 141.31,-135.44 141.41,-135.52 149.83,-142.27 152.49,-144.42 152.92,-144.76 155.67,-146.90 161.80,-151.44 163.49,-152.75"/>
        <lane id="24_2" index="2" disallow="bus truck rail_fast" speed="36.11" length="254.89" width="3.08" customShape="1" shape="-27.24,14.99 -25.12,13.17 -23.63,11.85 -20.67,9.22 -17.04,5.99 -14.05,3.39 -12.78,2.29 -9.76,-0.28 -6.06,-3.46 -3.02,-6.11 -1.54,-7.42 1.43,-10.03 5.37,-13.50 8.35,-16.10 9.73,-17.30 12.73,-19.90 16.09,-22.85 19.07,-25.47 20.39,-26.62 23.41,-29.25 27.55,-32.77 30.57,-35.34 32.40,-36.88 35.37,-39.44 38.55,-42.23 41.54,-44.88 42.87,-46.08 45.85,-48.70 49.76,-52.23 52.68,-54.83 53.92,-55.94 56.93,-58.58 60.94,-62.06 63.94,-64.64 65.07,-65.61 68.06,-68.22 72.27,-71.90 75.25,-74.50 76.05,-75.19 79.03,-77.80 83.01,-81.27 85.99,-83.87 87.35,-85.05 90.33,-87.66 93.94,-90.86 96.90,-93.46 98.06,-94.49 101.08,-97.12 105.10,-100.63 108.08,-103.25 109.10,-104.14 112.13,-106.74 116.49,-110.49 119.50,-113.12 120.07,-113.60 123.07,-116.21 127.87,-120.18 130.91,-122.70 131.89,-123.46 134.84,-125.85 134.97,-125.96 139.15,-129.23 142.19,-131.77 150.68,-138.54 153.72,-141.08 154.52,-141.71 157.63,-144.15 157.73,-144.23 162.26,-147.62 165.39,-150.04 165.50,-150.12"/>
        <lane id="24_3" index="3" disallow="bus truck rail_fast" speed="36.11" length="254.89" width="3.23" customShape="1" shape="-25.00,17.51 -22.94,15.71 -15.11,8.64 -14.94,8.50 -12.08,6.00 -11.94,5.88 -3.82,-0.98 -3.70,-1.09 -0.82,-3.59 -0.73,-3.67 7.36,-10.82 7.52,-10.96 10.38,-13.45 10.56,-13.60 18.31,-20.40 18.52,-20.59 21.29,-22.99 21.52,-23.19 29.67,-30.17 32.68,-32.79 40.61,-39.68 40.81,-39.85 43.59,-42.27 43.81,-42.46 51.69,-49.48 51.97,-49.73 54.70,-52.10 54.98,-52.34 62.82,-59.19 63.12,-59.46 65.86,-61.83 66.14,-62.08 73.83,-68.80 74.46,-69.35 76.83,-71.41 77.47,-71.98 85.18,-78.78 88.16,-81.38 96.14,-88.32 99.16,-90.95 107.11,-97.94 107.33,-98.13 110.10,-100.54 110.29,-100.70 118.25,-107.49 118.77,-107.93 121.23,-110.07 121.72,-110.50 129.63,-117.29 130.00,-117.61 132.64,-119.91 132.75,-120.00 132.95,-120.15 141.26,-126.57 144.31,-129.22 152.80,-135.85 155.71,-138.29 155.89,-138.43 164.31,-144.90 164.43,-145.00 167.42,-147.42 167.56,-147.52"/>
        <lane id="24_4" index="4" disallow="bus truck rail_fast" speed="36.11" length="254.89" width="3.45" customShape="1" shape="-22.73,20.07 -20.59,18.21 -20.26,17.92 -12.77,11.20 -12.40,10.88 -9.80,8.62 -9.40,8.27 -1.44,1.49 -1.06,1.16 1.57,-1.12 1.94,-1.45 9.68,-8.23 10.06,-8.57 12.66,-10.83 13.01,-11.13 20.77,-18.03 21.15,-18.36 23.75,-20.62 24.16,-20.97 31.95,-27.56 32.32,-27.89 34.96,-30.18 35.31,-30.48 42.82,-37.14 43.19,-37.47 45.79,-39.73 46.14,-40.03 53.94,-46.96 54.32,-47.29 56.92,-49.55 57.31,-49.89 65.12,-56.62 65.51,-56.96 68.12,-59.23 68.51,-59.56 76.12,-66.19 76.51,-66.53 79.11,-68.79 79.45,-69.09 87.44,-76.22 87.81,-76.55 90.41,-78.81 90.81,-79.15 98.46,-85.74 98.84,-86.07 101.45,-88.34 101.80,-88.65 109.37,-95.37 109.74,-95.70 112.34,-97.96 112.74,-98.31 120.46,-104.90 120.84,-105.23 123.46,-107.51 123.87,-107.86 131.90,-114.69 132.28,-115.02 134.91,-117.30 135.38,-117.68 143.45,-124.01 143.78,-124.28 143.91,-124.40 146.52,-126.65 147.00,-127.04 154.92,-133.19 155.40,-133.57 158.04,-135.70 158.57,-136.12 166.63,-142.34 167.10,-142.72 169.70,-144.82"/>
    </edge>
    <edge id="39" from="1" to="2" priority="1" spreadType="center" length="41.95">
        <lane id="39_0" index="0" disallow="bus truck rail_fast" speed="36.11" length="41.95" width="3.45" customShape="1" shape="-64.53,38.67 -64.29,38.47 -63.64,37.89 -61.01,35.58 -60.88,35.46 -60.18,34.83 -60.08,34.75 -57.91,32.91 -57.20,32.30 -56.53,31.70 -53.91,29.43 -53.24,28.82 -50.39,26.32 -50.24,26.18 -49.74,25.73 -47.17,23.50 -46.92,23.29 -46.24,22.67 -43.54,20.29 -42.82,19.64 -40.03,17.20 -39.31,16.55 -39.03,16.30 -36.51,14.14 -36.14,13.81 -35.85,13.55 -34.11,12.03"/>
        <lane id="39_1" index="1" disallow="bus truck rail_fast" speed="36.11" length="41.95" width="3.23" customShape="1" shape="-62.25,41.30 -58.94,38.50 -58.61,38.21 -55.91,35.86 -55.58,35.57 -48.28,28.99 -47.94,28.69 -45.28,26.38 -44.92,26.06 -37.12,19.10 -36.87,18.88 -34.11,16.49 -33.89,16.30 -31.86,14.56"/>
        <lane id="39_2" index="2" disallow="bus rail_fast" speed="36.11" length="41.95" width="3.05" customShape="1" shape="-60.11,43.76 -58.91,42.75 -56.76,40.92 -53.77,38.33 -50.23,35.17 -47.27,32.52 -46.18,31.54 -43.11,28.88 -39.38,25.60 -36.40,22.98 -34.88,21.63 -31.90,19.02 -29.64,17.06"/>
        <lane id="39_3" index="3" disallow="bus truck rail_fast" speed="36.11" length="41.95" width="3.28" customShape="1" shape="-57.98,46.26 -56.79,45.23 -56.57,45.04 -48.19,37.84 -47.92,37.61 -45.18,35.23 -44.90,34.98 -37.26,28.22 -37.12,28.09 -34.28,25.62 -34.13,25.49 -27.39,19.59"/>
        <lane id="39_4" index="4" disallow="bus truck rail_fast" speed="36.11" length="41.95" width="3.48" customShape="1" shape="-55.74,48.89 -54.31,47.65 -53.90,47.30 -45.89,40.48 -45.51,40.15 -42.88,37.87 -42.57,37.59 -35.02,30.76 -34.66,30.44 -32.06,28.18 -31.67,27.84 -25.12,22.14"/>
    </edge>

    <junction id="1" type="dead_end" x="-60.10" y="43.76" incLanes="" intLanes="" shape="-54.55,50.16 -65.66,37.37"/>
    <junction id="2" type="priority" x="-28.42" y="16.03" incLanes="39_0 39_1 39_2 39_3 39_4" intLanes=":2_0_0 :2_0_1 :2_0_2 :2_0_3 :2_0_4" shape="-21.58,21.36 -32.89,8.63 -35.26,10.74 -23.96,23.45">
        <request index="0" response="00000" foes="00000" cont="0"/>
        <request index="1" response="00000" foes="00000" cont="0"/>
        <request index="2" response="00000" foes="00000" cont="0"/>
        <request index="3" response="00000" foes="00000" cont="0"/>
        <request index="4" response="00000" foes="00000" cont="0"/>
    </junction>
    <junction id="3" type="dead_end" x="165.48" y="-150.14" incLanes="24_0 24_1 24_2 24_3 24_4" intLanes="" shape="160.13,-156.89 170.77,-143.47"/>

    <connection from="39" to="24" fromLane="0" toLane="0" contPos="-4.00" via=":2_0_0" dir="s" state="M"/>
    <connection from="39" to="24" fromLane="1" toLane="1" contPos="-4.00" via=":2_0_1" dir="s" state="M"/>
    <connection from="39" to="24" fromLane="2" toLane="2" contPos="-4.00" via=":2_0_2" dir="s" state="M"/>
    <connection from="39" to="24" fromLane="3" toLane="3" contPos="-4.00" via=":2_0_3" dir="s" state="M"/>
    <connection from="39" to="24" fromLane="4" toLane="4" contPos="-4.00" via=":2_0_4" dir="s" state="M"/>

    <connection from=":2_0" to="24" fromLane="0" toLane="0" dir="s" state="M"/>
    <connection from=":2_0" to="24" fromLane="1" toLane="1" dir="s" state="M"/>
    <connection from=":2_0" to="24" fromLane="2" toLane="2" dir="s" state="M"/>
    <connection from=":2_0" to="24" fromLane="3" toLane="3" dir="s" state="M"/>
    <connection from=":2_0" to="24" fromLane="4" toLane="4" dir="s" state="M"/>

</net>
