<routes>
	<vehicle depart="0.1" departLane="0" departPos="31.87125070470126" departSpeed="1.0976177" id="310" type="passenger">
		<route edges="4096 4093"/>
	</vehicle>
	<vehicle depart="0.1" departLane="0" departPos="39.69390927601954" departSpeed="1.4228227" id="312" type="passenger">
		<route edges="4096 4093"/>
	</vehicle>
	<vehicle depart="0.1" departLane="0" departPos="24.665238881542383" departSpeed="0.99124189" id="317" type="passenger">
		<route edges="4096 4093"/>
	</vehicle>
	<vehicle depart="0.1" departLane="0" departPos="52.042671018834184" departSpeed="1.074678" id="325" type="passenger">
		<route edges="4096 4093"/>
	</vehicle>
	<vehicle depart="0.1" departLane="0" departPos="75.54080042471307" departSpeed="17.804551" id="339" type="passenger">
		<route edges="4094 4097"/>
	</vehicle>
	<vehicle depart="0.1" departLane="0" departPos="2.5" departSpeed="12.113049" id="344" type="passenger">
		<route edges="4097"/>
	</vehicle>
	<vehicle depart="0.1" departLane="0" departPos="29.32731494684023" departSpeed="1.0463266" id="3154" type="passenger">
		<route edges=":136_7 3773 3776"/>
	</vehicle>
	<vehicle depart="0.1" departLane="0" departPos="7.381360383632923" departSpeed="0.05900195" id="35" type="motorcycle">
		<route edges=":136_2 4093"/>
	</vehicle>
</routes>
