<routes>
	<vehicle depart="0.1" departLane="0" departPos="54.010437944624606" departSpeed="0.0" id="37" type="passenger">
		<route edges="32160 32163"/>
	</vehicle>
	<vehicle depart="0.1" departLane="0" departPos="2.5" departSpeed="2.563856" id="39" type="passenger">
		<route edges="36259 31475"/>
	</vehicle>
	<vehicle depart="0.1" departLane="0" departPos="16.661869045760305" departSpeed="0.027450835" id="320" type="passenger">
		<route edges=":48_14 36258"/>
	</vehicle>
	<vehicle depart="0.1" departLane="0" departPos="14.279610576294047" departSpeed="7.2658336" id="331" type="passenger">
		<route edges="36259 31475"/>
	</vehicle>
	<vehicle depart="0.1" departLane="0" departPos="2.5" departSpeed="0.97613793" id="332" type="passenger">
		<route edges=":48_14 36258"/>
	</vehicle>
	<vehicle depart="0.1" departLane="1" departPos="11.015805823184616" departSpeed="1.1741128" id="339" type="passenger">
		<route edges="31179 36258"/>
	</vehicle>
	<vehicle depart="0.1" departLane="0" departPos="6.778025804823597" departSpeed="1.3786439" id="342" type="passenger">
		<route edges="31179 36133"/>
	</vehicle>
	<vehicle depart="0.1" departLane="1" departPos="24.126415456891742" departSpeed="3.2396897" id="345" type="passenger">
		<route edges=":52_0 31179"/>
	</vehicle>
	<vehicle depart="0.1" departLane="0" departPos="29.012655278021086" departSpeed="3.8099196" id="351" type="passenger">
		<route edges="35498 31588 31179"/>
	</vehicle>
	<vehicle depart="0.1" departLane="1" departPos="5.702329572590881" departSpeed="3.289778" id="349" type="motorcycle">
		<route edges=":52_0 31179"/>
	</vehicle>
</routes>
