<routes>
	<vehicle depart="0.1" departLane="0" departPos="69.77422110706217" departSpeed="2.7226239" id="359" type="bicycle">
		<route edges="40100 40397"/>
	</vehicle>
	<vehicle depart="0.1" departLane="0" departPos="45.18800781860005" departSpeed="6.1566609" id="371" type="bus">
		<route edges="40100 40353"/>
	</vehicle>
	<vehicle depart="0.1" departLane="0" departPos="35.28954367305711" departSpeed="1.3517297" id="37" type="passenger">
		<route edges=":50_1 40334 40101"/>
	</vehicle>
	<vehicle depart="0.1" departLane="0" departPos="11.044477876574017" departSpeed="0.025046679" id="313" type="passenger">
		<route edges=":49_6 40353"/>
	</vehicle>
	<vehicle depart="0.1" departLane="0" departPos="18.226560886046247" departSpeed="2.4099294" id="320" type="passenger">
		<route edges=":49_6 40353"/>
	</vehicle>
	<vehicle depart="0.1" departLane="0" departPos="35.9956372488136" departSpeed="0.95385622" id="330" type="passenger">
		<route edges="40398 40353"/>
	</vehicle>
	<vehicle depart="0.1" departLane="0" departPos="23.820661061874144" departSpeed="2.6129039" id="334" type="passenger">
		<route edges="40398 40353"/>
	</vehicle>
	<vehicle depart="0.1" departLane="0" departPos="2.5" departSpeed="8.5257463" id="363" type="passenger">
		<route edges=":49_1 40397 40308"/>
	</vehicle>
	<vehicle depart="0.1" departLane="0" departPos="69.92234827853662" departSpeed="0.0" id="325" type="truck">
		<route edges="40352 40397"/>
	</vehicle>
	<vehicle depart="0.1" departLane="0" departPos="19.963574254275496" departSpeed="6.4054186" id="356" type="truck">
		<route edges=":49_0 40335 40167"/>
	</vehicle>
</routes>
