<!-- generated on Tue Feb  9 22:20:31 2021 by Eclipse SUMO netconvert Version 1.8.0
<configuration xmlns:xsi="http://www.w3.org/2001/XMLSchema-instance" xsi:noNamespaceSchemaLocation="http://sumo.dlr.de/xsd/netconvertConfiguration.xsd">

    <input>
        <node-files value="./converted_scenarios/scenario-factory/DEU_Ibbenbueren-16_2_I-1-1/DEU_Ibbenbueren-16_2_I-1-1.nod.xml"/>
        <edge-files value="./converted_scenarios/scenario-factory/DEU_Ibbenbueren-16_2_I-1-1/DEU_Ibbenbueren-16_2_I-1-1.edg.xml"/>
        <connection-files value="./converted_scenarios/scenario-factory/DEU_Ibbenbueren-16_2_I-1-1/DEU_Ibbenbueren-16_2_I-1-1.con.xml"/>
        <tllogic-files value="./converted_scenarios/scenario-factory/DEU_Ibbenbueren-16_2_I-1-1/DEU_Ibbenbueren-16_2_I-1-1.tll.xml"/>
        <type-files value="/home/zen/commonroad-interactive-benchmarks/install/commonroad-map-tool/crmapconverter/sumo_map/templates/DEU.typ.xml"/>
    </input>

    <output>
        <output-file value="./converted_scenarios/scenario-factory/DEU_Ibbenbueren-16_2_I-1-1/DEU_Ibbenbueren-16_2_I-1-1.net.xml"/>
    </output>

    <processing>
        <geometry.remove.keep-edges.explicit value="true"/>
        <geometry.avoid-overlap value="true"/>
        <offset.disable-normalization value="true"/>
    </processing>

    <junctions>
        <no-turnarounds value="true"/>
        <junctions.internal-link-detail value="20"/>
    </junctions>

    <report>
        <aggregate-warnings value="5"/>
    </report>

    <random_number>
        <seed value="1234"/>
    </random_number>

</configuration>
--><net xmlns:xsi="http://www.w3.org/2001/XMLSchema-instance" version="1.6" junctionCornerDetail="5" junctionLinkDetail="20" limitTurnSpeed="5.50" xsi:noNamespaceSchemaLocation="http://sumo.dlr.de/xsd/net_file.xsd">

    <location netOffset="0.00,0.00" convBoundary="-18.61,-976.47,214.44,-784.67" origBoundary="-18.61,-976.47,214.44,-784.67" projParameter="!"/>

    <type id="highway.bridleway" priority="1" speed="2.78" allow="pedestrian" oneway="1" width="2.00"/>
    <type id="highway.bus_guideway" priority="1" speed="27.78" allow="bus" oneway="1"/>
    <type id="highway.cycleway" priority="1" speed="8.33" allow="bicycle" oneway="0" width="1.00"/>
    <type id="highway.footway" priority="1" speed="2.78" allow="pedestrian" oneway="1" width="2.00"/>
    <type id="highway.ford" priority="1" speed="2.78" allow="army" oneway="0"/>
    <type id="highway.living_street" priority="2" speed="2.78" disallow="tram rail_urban rail rail_electric rail_fast ship" oneway="0"/>
    <type id="highway.motorway" priority="14" speed="39.44" allow="private emergency authority army vip passenger hov taxi bus coach delivery truck trailer motorcycle evehicle custom1 custom2" oneway="1"/>
    <type id="highway.motorway_link" priority="9" speed="22.22" allow="private emergency authority army vip passenger hov taxi bus coach delivery truck trailer motorcycle evehicle custom1 custom2" oneway="1"/>
    <type id="highway.path" priority="1" speed="2.78" allow="pedestrian bicycle" oneway="0" width="2.00"/>
    <type id="highway.pedestrian" priority="1" speed="2.78" allow="pedestrian" oneway="1" width="2.00"/>
    <type id="highway.primary" priority="12" speed="27.78" disallow="pedestrian tram rail_urban rail rail_electric rail_fast ship" oneway="0"/>
    <type id="highway.primary_link" priority="7" speed="22.22" disallow="pedestrian tram rail_urban rail rail_electric rail_fast ship" oneway="0"/>
    <type id="highway.raceway" priority="15" speed="83.33" allow="vip" oneway="0"/>
    <type id="highway.residential" priority="3" speed="13.89" disallow="pedestrian tram rail_urban rail rail_electric rail_fast ship" oneway="0"/>
    <type id="highway.secondary" priority="11" speed="27.78" disallow="pedestrian tram rail_urban rail rail_electric rail_fast ship" oneway="0"/>
    <type id="highway.secondary_link" priority="6" speed="22.22" disallow="pedestrian tram rail_urban rail rail_electric rail_fast ship" oneway="0"/>
    <type id="highway.service" priority="1" speed="5.56" allow="pedestrian delivery bicycle" oneway="0"/>
    <type id="highway.stairs" priority="1" speed="1.39" allow="pedestrian" oneway="1" width="2.00"/>
    <type id="highway.step" priority="1" speed="1.39" allow="pedestrian" oneway="1" width="2.00"/>
    <type id="highway.steps" priority="1" speed="1.39" allow="pedestrian" oneway="1" width="2.00"/>
    <type id="highway.tertiary" priority="10" speed="22.22" disallow="pedestrian tram rail_urban rail rail_electric rail_fast ship" oneway="0"/>
    <type id="highway.tertiary_link" priority="5" speed="22.22" disallow="pedestrian tram rail_urban rail rail_electric rail_fast ship" oneway="0"/>
    <type id="highway.track" priority="1" speed="5.56" allow="pedestrian motorcycle moped bicycle" oneway="0"/>
    <type id="highway.trunk" priority="13" speed="27.78" disallow="pedestrian bicycle tram rail_urban rail rail_electric rail_fast ship" oneway="0"/>
    <type id="highway.trunk_link" priority="8" speed="22.22" disallow="pedestrian bicycle tram rail_urban rail rail_electric rail_fast ship" oneway="0"/>
    <type id="highway.unclassified" priority="4" speed="13.89" disallow="pedestrian tram rail_urban rail rail_electric rail_fast ship" oneway="0"/>
    <type id="highway.unsurfaced" priority="1" speed="8.33" disallow="tram rail_urban rail rail_electric rail_fast ship" oneway="0"/>
    <type id="railway.highspeed" priority="21" speed="69.44" allow="rail_fast" oneway="1"/>
    <type id="railway.light_rail" priority="19" speed="27.78" allow="rail_urban" oneway="1"/>
    <type id="railway.preserved" priority="16" speed="27.78" allow="rail" oneway="1"/>
    <type id="railway.rail" priority="20" speed="44.44" allow="rail" oneway="1"/>
    <type id="railway.subway" priority="18" speed="27.78" allow="rail_urban" oneway="1"/>
    <type id="railway.tram" priority="17" speed="13.89" allow="tram" oneway="1"/>

    <edge id=":49_0" function="internal">
        <lane id=":49_0_0" index="0" disallow="pedestrian tram rail_urban rail rail_electric rail_fast ship" speed="11.51" length="30.55" width="3.50" shape="136.17,-865.60 134.44,-868.36 132.46,-870.97 130.98,-872.57 129.35,-874.03 127.56,-875.28 125.63,-876.28 124.60,-876.67 123.56,-876.97 122.48,-877.18 121.40,-877.31 119.22,-877.29 117.06,-876.96 114.97,-876.35 112.95,-875.52 111.00,-874.51"/>
    </edge>
    <edge id=":49_1" function="internal">
        <lane id=":49_1_0" index="0" disallow="pedestrian tram rail_urban rail rail_electric rail_fast ship" speed="36.11" length="40.97" width="3.50" shape="136.17,-865.60 129.48,-877.41 122.47,-890.29 118.70,-897.83 117.02,-901.79"/>
    </edge>
    <edge id=":49_2" function="internal">
        <lane id=":49_2_0" index="0" disallow="pedestrian tram rail_urban rail rail_electric rail_fast ship" speed="11.69" length="36.05" width="3.50" shape="136.17,-865.60 134.93,-867.93 133.85,-870.39 132.98,-872.97 132.43,-875.65 132.29,-877.09 132.29,-878.52 132.42,-879.96 132.71,-881.39 133.16,-882.78 133.76,-884.12 134.50,-885.37 135.36,-886.53 136.32,-887.59 137.36,-888.55 138.47,-889.43 140.76,-890.90 143.18,-892.13 146.87,-893.56"/>
    </edge>
    <edge id=":49_3" function="internal">
        <lane id=":49_3_0" index="0" disallow="pedestrian tram rail_urban rail rail_electric rail_fast ship" speed="10.65" length="29.69" width="3.50" shape="147.99,-890.24 144.79,-889.01 142.75,-887.98 140.83,-886.74 139.93,-886.03 139.10,-885.25 138.33,-884.41 137.65,-883.49 137.07,-882.51 136.60,-881.46 136.25,-880.38 136.02,-879.26 135.92,-878.12 135.92,-876.98 136.03,-875.84 136.49,-873.60 137.21,-871.43 138.14,-869.34 139.20,-867.34"/>
    </edge>
    <edge id=":49_4" function="internal">
        <lane id=":49_4_0" index="0" disallow="pedestrian tram rail_urban rail rail_electric rail_fast ship" speed="36.11" length="40.26" width="3.50" shape="147.99,-890.24 140.17,-887.54 131.47,-884.22 123.87,-880.99 117.36,-877.90 111.00,-874.51"/>
    </edge>
    <edge id=":49_5" function="internal">
        <lane id=":49_5_0" index="0" disallow="pedestrian tram rail_urban rail rail_electric rail_fast ship" speed="12.82" length="37.50" width="3.50" shape="147.99,-890.24 146.79,-889.86 143.19,-888.90 139.49,-888.24 136.94,-888.02 134.37,-888.03 131.78,-888.32 129.22,-888.95 126.78,-889.92 125.58,-890.57 124.43,-891.33 122.41,-893.01 120.65,-894.99 119.18,-897.15 117.98,-899.44 117.02,-901.79"/>
    </edge>
    <edge id=":49_6" function="internal">
        <lane id=":49_6_0" index="0" disallow="pedestrian tram rail_urban rail rail_electric rail_fast ship" speed="11.87" length="32.02" width="3.50" shape="120.30,-902.99 121.14,-900.95 122.18,-899.00 123.43,-897.18 124.91,-895.54 126.63,-894.15 127.56,-893.56 128.54,-893.05 130.61,-892.26 132.76,-891.77 134.96,-891.55 137.17,-891.57 139.37,-891.77 142.63,-892.36 145.84,-893.23 146.87,-893.56"/>
    </edge>
    <edge id=":49_7" function="internal">
        <lane id=":49_7_0" index="0" disallow="pedestrian tram rail_urban rail rail_electric rail_fast ship" speed="36.11" length="40.37" width="3.50" shape="120.30,-902.99 121.93,-899.19 125.64,-891.78 132.57,-879.04 139.20,-867.34"/>
    </edge>
    <edge id=":49_8" function="internal">
        <lane id=":49_8_0" index="0" disallow="pedestrian tram rail_urban rail rail_electric rail_fast ship" speed="12.94" length="33.17" width="3.50" shape="120.30,-902.99 121.43,-899.34 121.98,-896.85 122.30,-894.32 122.37,-891.77 122.15,-889.23 121.60,-886.74 120.70,-884.35 119.47,-882.11 117.95,-880.07 116.18,-878.24 114.21,-876.61 112.10,-875.17 111.00,-874.51"/>
    </edge>
    <edge id=":49_9" function="internal">
        <lane id=":49_9_0" index="0" disallow="pedestrian tram rail_urban rail rail_electric rail_fast ship" speed="11.96" length="28.23" width="3.50" shape="109.25,-877.54 110.21,-878.11 112.05,-879.36 113.72,-880.76 115.21,-882.31 116.48,-884.02 117.49,-885.87 118.22,-887.85 118.67,-889.93 118.84,-892.06 118.77,-894.24 118.49,-896.42 118.01,-898.58 117.02,-901.79"/>
    </edge>
    <edge id=":49_10" function="internal">
        <lane id=":49_10_0" index="0" disallow="pedestrian tram rail_urban rail rail_electric rail_fast ship" speed="36.11" length="40.95" width="3.50" shape="109.25,-877.54 115.76,-881.02 122.40,-884.17 130.13,-887.45 138.95,-890.82 146.87,-893.56"/>
    </edge>
    <edge id=":49_11" function="internal">
        <lane id=":49_11_0" index="0" disallow="pedestrian tram rail_urban rail rail_electric rail_fast ship" speed="12.49" length="36.14" width="3.50" shape="109.25,-877.54 111.52,-878.72 113.88,-879.69 116.36,-880.43 118.95,-880.85 121.56,-880.89 122.93,-880.75 124.24,-880.51 125.53,-880.15 126.81,-879.68 129.14,-878.51 131.29,-877.03 133.22,-875.33 134.96,-873.46 137.23,-870.48 139.20,-867.34"/>
    </edge>
    <edge id=":50_0" function="internal">
        <lane id=":50_0_0" index="0" disallow="pedestrian tram rail_urban rail rail_electric rail_fast ship" speed="9.75" length="19.64" width="3.49" shape="94.15,-844.56 92.05,-847.93 90.38,-850.40 88.58,-852.77 87.29,-854.28 85.88,-855.68 85.12,-856.31 84.31,-856.88 83.43,-857.35 82.49,-857.65 81.50,-857.71 80.74,-857.51"/>
    </edge>
    <edge id=":50_1" function="internal">
        <lane id=":50_1_0" index="0" disallow="pedestrian tram rail_urban rail rail_electric rail_fast ship" speed="12.11" length="34.33" width="3.50" shape="94.15,-844.56 93.50,-845.68 92.36,-847.97 91.41,-850.39 90.72,-852.94 90.36,-855.56 90.33,-856.95 90.41,-858.31 90.62,-859.66 90.94,-860.99 91.39,-862.29 91.94,-863.54 92.59,-864.73 93.34,-865.88 95.00,-867.92 96.88,-869.74 98.91,-871.36 102.09,-873.42"/>
    </edge>
    <edge id=":50_2" function="internal">
        <lane id=":50_2_0" index="0" disallow="pedestrian tram rail_urban rail rail_electric rail_fast ship" speed="11.11" length="28.70" width="3.50" shape="103.87,-870.40 101.09,-868.60 99.36,-867.23 97.77,-865.69 96.37,-863.98 95.77,-863.06 95.23,-862.09 94.78,-861.08 94.42,-860.04 94.16,-858.96 93.99,-857.87 93.92,-856.77 93.94,-855.66 94.23,-853.48 94.81,-851.34 95.62,-849.29 96.61,-847.31 97.14,-846.37"/>
    </edge>
    <edge id=":50_3" function="internal">
        <lane id=":50_3_0" index="0" disallow="pedestrian tram rail_urban rail rail_electric rail_fast ship" speed="36.11" length="26.48" width="3.49" shape="103.87,-870.40 88.09,-861.44 80.74,-857.51"/>
    </edge>
    <edge id=":50_4" function="internal">
        <lane id=":50_4_0" index="0" disallow="pedestrian tram rail_urban rail rail_electric rail_fast ship" speed="36.11" length="26.23" width="3.50" shape="79.19,-860.64 86.44,-864.52 102.09,-873.42"/>
    </edge>
    <edge id=":50_5" function="internal">
        <lane id=":50_5_0" index="0" disallow="pedestrian tram rail_urban rail rail_electric rail_fast ship" speed="10.89" length="24.74" width="3.50" shape="79.19,-860.64 80.44,-861.06 82.03,-861.17 83.51,-860.92 84.82,-860.43 85.99,-859.80 87.07,-859.07 88.90,-857.49 90.55,-855.76 92.74,-853.05 94.73,-850.21 97.14,-846.37"/>
    </edge>
    <edge id=":51_0" function="internal">
        <lane id=":51_0_0" index="0" disallow="pedestrian tram rail_urban rail rail_electric rail_fast ship" speed="36.11" length="25.50" width="3.50" shape="80.56,-857.42 72.89,-853.42 58.16,-845.24"/>
    </edge>
    <edge id=":51_1" function="internal">
        <lane id=":51_1_0" index="0" disallow="pedestrian tram rail_urban rail rail_electric rail_fast ship" speed="10.33" length="24.47" width="3.50" shape="80.56,-857.42 78.81,-856.79 77.13,-856.67 75.53,-856.99 74.14,-857.61 72.95,-858.39 71.90,-859.27 70.96,-860.24 69.37,-862.22 67.98,-864.32 66.17,-867.54 64.07,-871.94"/>
    </edge>
    <edge id=":51_2" function="internal">
        <lane id=":51_2_0" index="0" disallow="pedestrian tram rail_urban rail rail_electric rail_fast ship" speed="9.15" length="18.93" width="3.49" shape="67.27,-873.37 69.04,-869.59 70.50,-866.84 71.57,-865.08 72.77,-863.38 73.43,-862.58 74.14,-861.83 74.92,-861.15 75.78,-860.58 76.74,-860.21 77.77,-860.15 79.01,-860.56"/>
    </edge>
    <edge id=":51_3" function="internal">
        <lane id=":51_3_0" index="0" disallow="pedestrian tram rail_urban rail rail_electric rail_fast ship" speed="12.44" length="33.19" width="3.50" shape="67.27,-873.37 68.64,-869.76 69.31,-867.30 69.73,-864.78 69.86,-862.24 69.65,-859.70 69.07,-857.21 68.10,-854.85 66.80,-852.66 65.20,-850.68 63.38,-848.89 61.39,-847.30 58.16,-845.24"/>
    </edge>
    <edge id=":51_4" function="internal">
        <lane id=":51_4_0" index="0" disallow="pedestrian tram rail_urban rail rail_electric rail_fast ship" speed="11.46" length="28.00" width="3.50" shape="56.41,-848.27 59.25,-850.08 60.94,-851.43 62.48,-852.94 63.81,-854.59 64.88,-856.39 65.67,-858.32 66.14,-860.35 66.31,-862.44 66.20,-864.57 65.84,-866.70 65.27,-868.80 64.07,-871.94"/>
    </edge>
    <edge id=":51_5" function="internal">
        <lane id=":51_5_0" index="0" disallow="pedestrian tram rail_urban rail rail_electric rail_fast ship" speed="36.11" length="25.73" width="3.49" shape="56.41,-848.27 71.25,-856.51 79.01,-860.56"/>
    </edge>
    <edge id=":52_0" function="internal">
        <lane id=":52_0_0" index="0" disallow="pedestrian tram rail_urban rail rail_electric rail_fast ship" speed="36.11" length="30.77" width="3.45" shape="106.61,-937.40 100.28,-959.06 97.92,-966.92"/>
    </edge>
    <edge id=":52_1" function="internal">
        <lane id=":52_1_0" index="0" disallow="pedestrian tram rail_urban rail rail_electric rail_fast ship" speed="12.01" length="34.74" width="3.50" shape="106.61,-937.40 105.72,-941.31 105.39,-943.97 105.33,-946.64 105.62,-949.29 105.91,-950.59 106.31,-951.87 106.82,-953.10 107.44,-954.28 108.18,-955.39 109.02,-956.43 109.95,-957.39 110.96,-958.27 113.16,-959.77 115.55,-960.97 118.05,-961.91 121.94,-962.94"/>
    </edge>
    <edge id=":52_2" function="internal">
        <lane id=":52_2_0" index="0" disallow="pedestrian tram rail_urban rail rail_electric rail_fast ship" speed="11.00" length="28.93" width="3.50" shape="122.67,-959.51 119.27,-958.62 117.15,-957.83 115.16,-956.82 113.32,-955.57 112.54,-954.88 111.80,-954.12 111.13,-953.29 110.55,-952.41 110.06,-951.48 109.66,-950.50 109.34,-949.48 109.11,-948.46 108.87,-946.24 108.92,-944.00 109.20,-941.75 109.98,-938.33"/>
    </edge>
    <edge id=":52_3" function="internal">
        <lane id=":52_3_0" index="0" disallow="pedestrian tram rail_urban rail rail_electric rail_fast ship" speed="36.11" length="30.90" width="3.50" shape="101.26,-967.97 103.64,-960.06 109.98,-938.33"/>
    </edge>
    <edge id=":53_0" function="internal">
        <lane id=":53_0_0" index="0" disallow="pedestrian tram rail_urban rail rail_electric rail_fast ship" speed="36.11" length="39.03" width="3.48" shape="26.59,-899.78 15.52,-897.60 1.33,-895.13 -11.87,-893.19"/>
    </edge>
    <edge id=":53_1" function="internal">
        <lane id=":53_1_0" index="0" disallow="pedestrian tram rail_urban rail rail_electric rail_fast ship" speed="12.02" length="34.93" width="3.50" shape="26.59,-899.78 22.79,-899.20 20.15,-899.05 17.49,-899.17 14.85,-899.63 13.50,-900.03 12.20,-900.53 10.95,-901.16 9.76,-901.90 8.65,-902.76 7.62,-903.72 6.70,-904.76 5.86,-905.90 4.53,-908.24 3.53,-910.72 2.80,-913.27 2.13,-917.07"/>
    </edge>
    <edge id=":53_2" function="internal">
        <lane id=":53_2_0" index="0" disallow="pedestrian tram rail_urban rail rail_electric rail_fast ship" speed="11.01" length="29.07" width="3.50" shape="5.60,-917.49 6.18,-914.22 6.79,-912.07 7.63,-909.99 8.74,-908.05 9.41,-907.15 10.15,-906.31 10.97,-905.55 11.85,-904.87 12.80,-904.28 13.81,-903.78 14.85,-903.37 15.92,-903.06 18.13,-902.68 20.36,-902.57 22.60,-902.70 25.93,-903.22"/>
    </edge>
    <edge id=":53_3" function="internal">
        <lane id=":53_3_0" index="0" disallow="pedestrian tram rail_urban rail rail_electric rail_fast ship" speed="36.11" length="38.86" width="3.50" shape="-12.36,-896.65 0.78,-898.59 14.88,-901.04 25.93,-903.22"/>
    </edge>

    <edge id="40100" from="31" to="49" priority="3" type="highway.residential" spreadType="center" length="70.01" shape="170.68,-804.70 126.93,-883.38">
        <lane id="40100_0" index="0" disallow="pedestrian tram rail_urban rail rail_electric rail_fast ship" speed="36.11" length="70.01" width="3.50" customShape="1" shape="170.68,-804.70 136.16,-865.61"/>
    </edge>
    <edge id="40101" from="49" to="14" priority="3" type="highway.residential" spreadType="center" length="70.00" shape="129.99,-885.08 173.71,-806.44">
        <lane id="40101_0" index="0" disallow="pedestrian tram rail_urban rail rail_electric rail_fast ship" speed="36.11" length="70.00" width="3.50" customShape="1" shape="139.20,-867.34 173.71,-806.44"/>
    </edge>
    <edge id="40166" from="27" to="50" priority="3" type="highway.residential" spreadType="center" length="70.00" shape="130.37,-784.67 91.25,-858.00">
        <lane id="40166_0" index="0" disallow="pedestrian tram rail_urban rail rail_electric rail_fast ship" speed="36.11" length="70.00" width="3.50" customShape="1" shape="130.37,-784.67 94.14,-844.57"/>
    </edge>
    <edge id="40167" from="50" to="6" priority="3" type="highway.residential" spreadType="center" length="70.00" shape="94.34,-859.65 133.37,-786.47">
        <lane id="40167_0" index="0" disallow="pedestrian tram rail_urban rail rail_electric rail_fast ship" speed="36.11" length="70.00" width="3.50" customShape="1" shape="97.14,-846.37 133.37,-786.47"/>
    </edge>
    <edge id="40307" from="47" to="52" priority="3" type="highway.residential" spreadType="center" length="70.01" shape="191.34,-973.04 110.43,-953.80">
        <lane id="40307_0" index="0" disallow="pedestrian tram rail_urban rail rail_electric rail_fast ship" speed="36.11" length="70.01" width="3.50" customShape="1" shape="191.34,-973.04 179.54,-971.08 161.83,-967.72 122.66,-959.51"/>
    </edge>
    <edge id="40308" from="52" to="37" priority="3" type="highway.residential" spreadType="center" length="70.00" shape="109.62,-957.20 190.61,-976.47">
        <lane id="40308_0" index="0" disallow="pedestrian tram rail_urban rail rail_electric rail_fast ship" speed="36.11" length="70.00" width="3.50" customShape="1" shape="121.94,-962.94 161.22,-971.16 179.00,-974.54 190.61,-976.47"/>
    </edge>
    <edge id="40322" from="53" to="42" priority="3" type="highway.residential" spreadType="center" length="26.88" shape="4.26,-904.44 3.06,-943.69">
        <lane id="40322_0" index="0" disallow="pedestrian tram rail_urban rail rail_electric rail_fast ship" speed="36.11" length="26.88" width="3.50" customShape="1" shape="2.13,-917.07 1.85,-919.62 1.58,-924.17 1.63,-928.22 1.89,-930.23 2.59,-932.66 3.18,-934.60 3.41,-936.10 3.41,-939.65 3.06,-943.69"/>
    </edge>
    <edge id="40323" from="46" to="53" priority="3" type="highway.residential" spreadType="center" length="26.89" shape="6.54,-944.09 7.75,-904.54">
        <lane id="40323_0" index="0" disallow="pedestrian tram rail_urban rail rail_electric rail_fast ship" speed="36.11" length="26.89" width="3.50" customShape="1" shape="6.54,-944.09 6.90,-939.95 6.92,-936.25 6.72,-934.48 6.16,-932.33 5.45,-929.99 5.15,-928.30 5.08,-924.42 5.33,-919.98 5.61,-917.45"/>
    </edge>
    <edge id="40325" from="45" to="53" priority="3" type="highway.residential" spreadType="center" length="6.33" shape="-18.61,-895.81 5.41,-906.22">
        <lane id="40325_0" index="0" disallow="pedestrian tram rail_urban rail rail_electric rail_fast ship" speed="36.11" length="6.33" width="3.50" customShape="1" shape="-18.61,-895.81 -13.66,-896.48 -12.99,-896.57 -12.34,-896.66"/>
    </edge>
    <edge id="40326" from="53" to="41" priority="3" type="highway.residential" spreadType="center" length="6.29" shape="6.79,-903.02 -18.11,-892.36">
        <lane id="40326_0" index="0" disallow="pedestrian tram rail_urban rail rail_electric rail_fast ship" speed="36.11" length="6.29" width="3.48" customShape="1" shape="-11.87,-893.19 -12.52,-893.10 -13.15,-893.02 -18.11,-892.36"/>
    </edge>
    <edge id="40334" from="50" to="49" priority="3" type="highway.residential" spreadType="center" length="8.30" shape="91.74,-860.18 127.46,-885.62">
        <lane id="40334_0" index="0" disallow="pedestrian tram rail_urban rail rail_electric rail_fast ship" speed="36.11" length="8.30" width="3.50" customShape="1" shape="102.09,-873.42 105.69,-875.49 109.28,-877.56"/>
    </edge>
    <edge id="40335" from="49" to="50" priority="3" type="highway.residential" spreadType="center" length="8.26" shape="129.49,-882.77 93.77,-857.33">
        <lane id="40335_0" index="0" disallow="pedestrian tram rail_urban rail rail_electric rail_fast ship" speed="36.11" length="8.26" width="3.50" customShape="1" shape="111.00,-874.51 107.44,-872.46 103.84,-870.39"/>
    </edge>
    <edge id="40337" from="51" to="50" priority="3" type="highway.residential" spreadType="center" length="0.20" shape="67.41,-861.16 92.85,-860.54">
        <lane id="40337_0" index="0" disallow="pedestrian tram rail_urban rail rail_electric rail_fast ship" speed="36.11" length="0.20" width="3.49" customShape="1" shape="79.01,-860.56 79.19,-860.64"/>
    </edge>
    <edge id="40338" from="50" to="51" priority="3" type="highway.residential" spreadType="center" length="0.20" shape="92.77,-857.05 67.33,-857.68">
        <lane id="40338_0" index="0" disallow="pedestrian tram rail_urban rail rail_electric rail_fast ship" speed="36.11" length="0.20" width="3.49" customShape="1" shape="80.74,-857.51 80.56,-857.42"/>
    </edge>
    <edge id="40340" from="35" to="51" priority="3" type="highway.residential" spreadType="center" length="70.04" shape="-4.92,-814.53 66.57,-860.91">
        <lane id="40340_0" index="0" disallow="pedestrian tram rail_urban rail rail_electric rail_fast ship" speed="36.11" length="70.04" width="3.50" customShape="1" shape="-4.92,-814.53 5.08,-819.71 23.62,-829.78 56.44,-848.28"/>
    </edge>
    <edge id="40341" from="51" to="26" priority="3" type="highway.residential" spreadType="center" length="70.01" shape="68.47,-857.97 -3.17,-811.49">
        <lane id="40341_0" index="0" disallow="pedestrian tram rail_urban rail rail_electric rail_fast ship" speed="36.11" length="70.01" width="3.50" customShape="1" shape="58.16,-845.24 25.29,-826.70 6.69,-816.60 -3.17,-811.49"/>
    </edge>
    <edge id="40352" from="36" to="49" priority="3" type="highway.residential" spreadType="center" length="70.03" shape="214.44,-912.26 129.02,-882.53">
        <lane id="40352_0" index="0" disallow="pedestrian tram rail_urban rail rail_electric rail_fast ship" speed="36.11" length="70.03" width="3.50" customShape="1" shape="214.44,-912.26 198.02,-906.82 147.97,-890.23"/>
    </edge>
    <edge id="40353" from="49" to="19" priority="3" type="highway.residential" spreadType="center" length="70.00" shape="127.87,-885.84 213.32,-915.58">
        <lane id="40353_0" index="0" disallow="pedestrian tram rail_urban rail rail_electric rail_fast ship" speed="36.11" length="70.00" width="3.50" customShape="1" shape="146.87,-893.56 196.91,-910.14 213.32,-915.58"/>
    </edge>
    <edge id="40364" from="51" to="53" priority="3" type="highway.residential" spreadType="center" length="53.18" shape="66.45,-858.01 4.93,-903.18">
        <lane id="40364_0" index="0" disallow="pedestrian tram rail_urban rail rail_electric rail_fast ship" speed="36.11" length="53.18" width="3.50" customShape="1" shape="64.07,-871.94 63.08,-874.15 60.33,-879.85 56.57,-886.68 54.07,-890.86 52.12,-893.66 49.92,-896.27 47.83,-898.31 46.28,-899.49 44.96,-900.12 42.10,-900.72 38.71,-901.04 35.30,-901.02 31.42,-900.64 26.53,-899.77"/>
    </edge>
    <edge id="40365" from="53" to="51" priority="3" type="highway.residential" spreadType="center" length="57.83" shape="7.00,-906.00 68.52,-860.83">
        <lane id="40365_0" index="0" disallow="pedestrian tram rail_urban rail rail_electric rail_fast ship" speed="36.11" length="57.83" width="3.50" customShape="1" shape="25.93,-903.22 31.05,-904.12 35.25,-904.52 38.98,-904.53 42.71,-904.17 45.94,-903.48 47.67,-902.71 49.60,-901.38 51.98,-899.16 54.44,-896.36 56.62,-893.34 59.32,-888.91 63.31,-881.71 66.23,-875.69 67.28,-873.34"/>
    </edge>
    <edge id="40394" from="52" to="38" priority="3" type="highway.residential" spreadType="center" length="5.21" shape="108.73,-954.41 96.49,-971.93">
        <lane id="40394_0" index="0" disallow="pedestrian tram rail_urban rail rail_electric rail_fast ship" speed="36.11" length="5.21" width="3.45" customShape="1" shape="97.92,-966.92 97.88,-967.04 96.49,-971.93"/>
    </edge>
    <edge id="40395" from="48" to="52" priority="3" type="highway.residential" spreadType="center" length="5.25" shape="99.76,-972.96 111.53,-956.38">
        <lane id="40395_0" index="0" disallow="pedestrian tram rail_urban rail rail_electric rail_fast ship" speed="36.11" length="5.25" width="3.40" customShape="1" shape="99.76,-972.96 101.20,-968.17 101.27,-967.93"/>
    </edge>
    <edge id="40397" from="49" to="52" priority="3" type="highway.residential" spreadType="center" length="37.12" shape="126.79,-883.76 108.36,-955.11">
        <lane id="40397_0" index="0" disallow="pedestrian tram rail_urban rail rail_electric rail_fast ship" speed="36.11" length="37.12" width="3.50" customShape="1" shape="117.02,-901.79 115.67,-905.65 112.79,-914.86 106.61,-937.41"/>
    </edge>
    <edge id="40398" from="52" to="49" priority="3" type="highway.residential" spreadType="center" length="36.88" shape="111.74,-955.99 130.17,-884.64">
        <lane id="40398_0" index="0" disallow="pedestrian tram rail_urban rail rail_electric rail_fast ship" speed="36.11" length="36.88" width="3.50" customShape="1" shape="109.98,-938.33 116.13,-915.90 118.98,-906.78 120.32,-902.94"/>
    </edge>

    <junction id="14" type="dead_end" x="173.71" y="-806.44" incLanes="40101_0" intLanes="" shape="175.24,-807.30 172.19,-805.57" rightOfWay="edgePriority"/>
    <junction id="19" type="dead_end" x="213.32" y="-915.58" incLanes="40353_0" intLanes="" shape="212.76,-917.24 213.87,-913.92" rightOfWay="edgePriority"/>
    <junction id="26" type="dead_end" x="-3.17" y="-811.49" incLanes="40341_0" intLanes="" shape="-2.36,-809.94 -3.97,-813.04" rightOfWay="edgePriority"/>
    <junction id="27" type="dead_end" x="130.37" y="-784.67" incLanes="" intLanes="" shape="131.86,-785.58 128.87,-783.77" rightOfWay="edgePriority"/>
    <junction id="31" type="dead_end" x="170.68" y="-804.70" incLanes="" intLanes="" shape="172.20,-805.56 169.16,-803.83" rightOfWay="edgePriority"/>
    <junction id="35" type="dead_end" x="-4.92" y="-814.53" incLanes="" intLanes="" shape="-4.11,-812.97 -5.72,-816.08" rightOfWay="edgePriority"/>
    <junction id="36" type="dead_end" x="214.44" y="-912.26" incLanes="" intLanes="" shape="213.89,-913.92 214.99,-910.60" rightOfWay="edgePriority"/>
    <junction id="37" type="dead_end" x="190.61" y="-976.47" incLanes="40308_0" intLanes="" shape="190.32,-978.19 190.90,-974.74" rightOfWay="edgePriority"/>
    <junction id="38" type="dead_end" x="96.49" y="-971.93" incLanes="40394_0" intLanes="" shape="94.83,-971.46 98.15,-972.41" rightOfWay="edgePriority"/>
    <junction id="41" type="dead_end" x="-18.11" y="-892.36" incLanes="40326_0" intLanes="" shape="-17.88,-890.63 -18.34,-894.08" rightOfWay="edgePriority"/>
    <junction id="42" type="dead_end" x="3.06" y="-943.69" incLanes="40322_0" intLanes="" shape="1.32,-943.54 4.81,-943.84" rightOfWay="edgePriority"/>
    <junction id="45" type="dead_end" x="-18.61" y="-895.81" incLanes="" intLanes="" shape="-18.38,-894.08 -18.85,-897.54" rightOfWay="edgePriority"/>
    <junction id="46" type="dead_end" x="6.54" y="-944.09" incLanes="" intLanes="" shape="4.80,-943.94 8.28,-944.24" rightOfWay="edgePriority"/>
    <junction id="47" type="dead_end" x="191.34" y="-973.04" incLanes="" intLanes="" shape="191.05,-974.77 191.63,-971.31" rightOfWay="edgePriority"/>