<routes>
	<vehicle depart="0.1" departLane="0" departPos="53.7610193898578" departSpeed="4.4136288" id="34" type="passenger">
		<route edges="33062 33333"/>
	</vehicle>
	<vehicle depart="0.1" departLane="0" departPos="40.08727530910688" departSpeed="3.2231253" id="318" type="passenger">
		<route edges="33062 33065"/>
	</vehicle>
	<vehicle depart="0.1" departLane="0" departPos="49.975885757552454" departSpeed="0.0" id="328" type="passenger">
		<route edges="33332 33061"/>
	</vehicle>
	<vehicle depart="0.1" departLane="0" departPos="42.47463172680692" departSpeed="0.0" id="335" type="passenger">
		<route edges="33332 33061"/>
	</vehicle>
	<vehicle depart="0.1" departLane="0" departPos="2.5" departSpeed="6.2681124" id="340" type="passenger">
		<route edges=":74_0 33065"/>
	</vehicle>
	<vehicle depart="0.1" departLane="0" departPos="28.560008910647507" departSpeed="2.5904197" id="342" type="passenger">
		<route edges="33062 33065"/>
	</vehicle>
	<vehicle depart="0.1" departLane="0" departPos="18.569344701420384" departSpeed="2.2088522" id="350" type="motorcycle">
		<route edges="33062 33065"/>
	</vehicle>
	<vehicle depart="0.1" departLane="0" departPos="17.645562097413897" departSpeed="5.8431849" id="339" type="truck">
		<route edges=":74_1 33333 33177"/>
	</vehicle>
</routes>
