<routes>
	<vehicle depart="0.1" departLane="0" departPos="60.20822147787006" departSpeed="2.86" id="30" type="passenger">
		<route edges="559 562 560"/>
	</vehicle>
	<vehicle depart="0.1" departLane="0" departPos="48.11399065368449" departSpeed="2.6936" id="32" type="passenger">
		<route edges="559 562 560"/>
	</vehicle>
	<vehicle depart="0.1" departLane="0" departPos="38.13585870050783" departSpeed="3.0063" id="33" type="passenger">
		<route edges="558"/>
	</vehicle>
	<vehicle depart="0.1" departLane="0" departPos="0" departSpeed="2.8115" id="34" type="passenger">
		<route edges="558"/>
	</vehicle>
	<vehicle depart="0.1" departLane="0" departPos="0" departSpeed="2.3055" id="35" type="passenger">
		<route edges="558"/>
	</vehicle>
	<vehicle depart="0.1" departLane="0" departPos="23.598556015340776" departSpeed="12.2142" id="37" type="passenger">
		<route edges="560"/>
	</vehicle>
	<vehicle depart="0.1" departLane="0" departPos="0" departSpeed="2.273" id="38" type="passenger">
		<route edges="559 562 560"/>
	</vehicle>
	<vehicle depart="0.1" departLane="0" departPos="9.645813138532084" departSpeed="2.5634" id="39" type="passenger">
		<route edges="564 558"/>
	</vehicle>
	<vehicle depart="0.1" departLane="0" departPos="0" departSpeed="2.2824" id="310" type="passenger">
		<route edges="559 562 560"/>
	</vehicle>
	<vehicle depart="0.1" departLane="0" departPos="21.894038174124027" departSpeed="0.0097" id="311" type="passenger">
		<route edges="561 564 558"/>
	</vehicle>
	<vehicle depart="0.1" departLane="0" departPos="0" departSpeed="1.9519" id="312" type="passenger">
		<route edges="561 564 558"/>
	</vehicle>
	<vehicle depart="0.1" departLane="0" departPos="0" departSpeed="1.8451" id="313" type="passenger">
		<route edges="559 562 560"/>
	</vehicle>
</routes>
