<routes>
	<vehicle depart="0.1" departLane="0" departPos="47.1506918794625" departSpeed="1.2141058" id="311" type="bicycle">
		<route edges="8799 8792"/>
	</vehicle>
	<vehicle depart="0.1" departLane="0" departPos="66.66772220004869" departSpeed="3.8245117" id="33" type="passenger">
		<route edges="8799 8938"/>
	</vehicle>
	<vehicle depart="0.1" departLane="0" departPos="53.19880204069316" departSpeed="2.8659387" id="34" type="passenger">
		<route edges="8799 8792"/>
	</vehicle>
	<vehicle depart="0.1" departLane="0" departPos="30.807344299300105" departSpeed="0.94568495" id="335" type="passenger">
		<route edges="8799 8792"/>
	</vehicle>
	<vehicle depart="0.1" departLane="0" departPos="30.1778061877173" departSpeed="2.89086" id="339" type="passenger">
		<route edges=":41_5 8938"/>
	</vehicle>
	<vehicle depart="0.1" departLane="0" departPos="29.802200684108257" departSpeed="0.025688124" id="343" type="passenger">
		<route edges="8791 8798"/>
	</vehicle>
	<vehicle depart="0.1" departLane="0" departPos="17.44101809826352" departSpeed="0.73176286" id="345" type="passenger">
		<route edges="8799 8792"/>
	</vehicle>
	<vehicle depart="0.1" departLane="0" departPos="22.85797465085969" departSpeed="0.00053119692" id="348" type="passenger">
		<route edges="8791 8798"/>
	</vehicle>
	<vehicle depart="0.1" departLane="0" departPos="5.237472196939502" departSpeed="10.611422" id="351" type="passenger">
		<route edges=":41_1 8798"/>
	</vehicle>
	<vehicle depart="0.1" departLane="0" departPos="15.437411463932914" departSpeed="0.0029696126" id="355" type="passenger">
		<route edges="8791 8798"/>
	</vehicle>
</routes>
