<!-- generated on Tue Feb  9 22:17:28 2021 by Eclipse SUMO netconvert Version 1.8.0
<configuration xmlns:xsi="http://www.w3.org/2001/XMLSchema-instance" xsi:noNamespaceSchemaLocation="http://sumo.dlr.de/xsd/netconvertConfiguration.xsd">

    <input>
        <node-files value="./converted_scenarios/scenario-factory/BEL_Wervik-1_1_I-1-1/BEL_Wervik-1_1_I-1-1.nod.xml"/>
        <edge-files value="./converted_scenarios/scenario-factory/BEL_Wervik-1_1_I-1-1/BEL_Wervik-1_1_I-1-1.edg.xml"/>
        <connection-files value="./converted_scenarios/scenario-factory/BEL_Wervik-1_1_I-1-1/BEL_Wervik-1_1_I-1-1.con.xml"/>
        <tllogic-files value="./converted_scenarios/scenario-factory/BEL_Wervik-1_1_I-1-1/BEL_Wervik-1_1_I-1-1.tll.xml"/>
        <type-files value="/home/zen/commonroad-interactive-benchmarks/install/commonroad-map-tool/crmapconverter/sumo_map/templates/DEU.typ.xml"/>
    </input>

    <output>
        <output-file value="./converted_scenarios/scenario-factory/BEL_Wervik-1_1_I-1-1/BEL_Wervik-1_1_I-1-1.net.xml"/>
    </output>

    <processing>
        <geometry.remove.keep-edges.explicit value="true"/>
        <geometry.avoid-overlap value="true"/>
        <offset.disable-normalization value="true"/>
    </processing>

    <junctions>
        <no-turnarounds value="true"/>
        <junctions.internal-link-detail value="20"/>
    </junctions>

    <report>
        <aggregate-warnings value="5"/>
    </report>

    <random_number>
        <seed value="1234"/>
    </random_number>

</configuration>
--><net xmlns:xsi="http://www.w3.org/2001/XMLSchema-instance" version="1.6" junctionCornerDetail="5" junctionLinkDetail="20" limitTurnSpeed="5.50" xsi:noNamespaceSchemaLocation="http://sumo.dlr.de/xsd/net_file.xsd">

    <location netOffset="0.00,0.00" convBoundary="263.56,254.07,581.21,705.39" origBoundary="263.56,254.07,581.21,705.39" projParameter="!"/>

    <type id="highway.bridleway" priority="1" speed="2.78" allow="pedestrian" oneway="1" width="2.00"/>
    <type id="highway.bus_guideway" priority="1" speed="27.78" allow="bus" oneway="1"/>
    <type id="highway.cycleway" priority="1" speed="8.33" allow="bicycle" oneway="0" width="1.00"/>
    <type id="highway.footway" priority="1" speed="2.78" allow="pedestrian" oneway="1" width="2.00"/>
    <type id="highway.ford" priority="1" speed="2.78" allow="army" oneway="0"/>
    <type id="highway.living_street" priority="2" speed="2.78" disallow="tram rail_urban rail rail_electric rail_fast ship" oneway="0"/>
    <type id="highway.motorway" priority="14" speed="39.44" allow="private emergency authority army vip passenger hov taxi bus coach delivery truck trailer motorcycle evehicle custom1 custom2" oneway="1"/>
    <type id="highway.motorway_link" priority="9" speed="22.22" allow="private emergency authority army vip passenger hov taxi bus coach delivery truck trailer motorcycle evehicle custom1 custom2" oneway="1"/>
    <type id="highway.path" priority="1" speed="2.78" allow="pedestrian bicycle" oneway="0" width="2.00"/>
    <type id="highway.pedestrian" priority="1" speed="2.78" allow="pedestrian" oneway="1" width="2.00"/>
    <type id="highway.primary" priority="12" speed="27.78" disallow="pedestrian tram rail_urban rail rail_electric rail_fast ship" oneway="0"/>
    <type id="highway.primary_link" priority="7" speed="22.22" disallow="pedestrian tram rail_urban rail rail_electric rail_fast ship" oneway="0"/>
    <type id="highway.raceway" priority="15" speed="83.33" allow="vip" oneway="0"/>
    <type id="highway.residential" priority="3" speed="13.89" disallow="pedestrian tram rail_urban rail rail_electric rail_fast ship" oneway="0"/>
    <type id="highway.secondary" priority="11" speed="27.78" disallow="pedestrian tram rail_urban rail rail_electric rail_fast ship" oneway="0"/>
    <type id="highway.secondary_link" priority="6" speed="22.22" disallow="pedestrian tram rail_urban rail rail_electric rail_fast ship" oneway="0"/>
    <type id="highway.service" priority="1" speed="5.56" allow="pedestrian delivery bicycle" oneway="0"/>
    <type id="highway.stairs" priority="1" speed="1.39" allow="pedestrian" oneway="1" width="2.00"/>
    <type id="highway.step" priority="1" speed="1.39" allow="pedestrian" oneway="1" width="2.00"/>
    <type id="highway.steps" priority="1" speed="1.39" allow="pedestrian" oneway="1" width="2.00"/>
    <type id="highway.tertiary" priority="10" speed="22.22" disallow="pedestrian tram rail_urban rail rail_electric rail_fast ship" oneway="0"/>
    <type id="highway.tertiary_link" priority="5" speed="22.22" disallow="pedestrian tram rail_urban rail rail_electric rail_fast ship" oneway="0"/>
    <type id="highway.track" priority="1" speed="5.56" allow="pedestrian motorcycle moped bicycle" oneway="0"/>
    <type id="highway.trunk" priority="13" speed="27.78" disallow="pedestrian bicycle tram rail_urban rail rail_electric rail_fast ship" oneway="0"/>
    <type id="highway.trunk_link" priority="8" speed="22.22" disallow="pedestrian bicycle tram rail_urban rail rail_electric rail_fast ship" oneway="0"/>
    <type id="highway.unclassified" priority="4" speed="13.89" disallow="pedestrian tram rail_urban rail rail_electric rail_fast ship" oneway="0"/>
    <type id="highway.unsurfaced" priority="1" speed="8.33" disallow="tram rail_urban rail rail_electric rail_fast ship" oneway="0"/>
    <type id="railway.highspeed" priority="21" speed="69.44" allow="rail_fast" oneway="1"/>
    <type id="railway.light_rail" priority="19" speed="27.78" allow="rail_urban" oneway="1"/>
    <type id="railway.preserved" priority="16" speed="27.78" allow="rail" oneway="1"/>
    <type id="railway.rail" priority="20" speed="44.44" allow="rail" oneway="1"/>
    <type id="railway.subway" priority="18" speed="27.78" allow="rail_urban" oneway="1"/>
    <type id="railway.tram" priority="17" speed="13.89" allow="tram" oneway="1"/>

    <edge id=":105_0" function="internal">
        <lane id=":105_0_0" index="0" disallow="pedestrian tram rail_urban rail rail_electric rail_fast ship" speed="11.08" length="28.33" width="3.50" shape="345.04,460.31 344.99,457.05 344.73,454.88 344.26,452.75 343.52,450.70 343.03,449.73 342.47,448.79 341.84,447.91 341.12,447.08 340.34,446.33 339.49,445.64 338.59,445.03 336.66,444.03 334.60,443.30 332.48,442.81 330.32,442.51 328.14,442.38"/>
    </edge>
    <edge id=":105_1" function="internal">
        <lane id=":105_1_0" index="0" disallow="pedestrian tram rail_urban rail rail_electric rail_fast ship" speed="36.11" length="33.66" width="3.50" shape="345.04,460.31 345.65,443.51 346.27,426.67"/>
    </edge>
    <edge id=":105_2" function="internal">
        <lane id=":105_2_0" index="0" disallow="pedestrian tram rail_urban rail rail_electric rail_fast ship" speed="36.11" length="33.63" width="3.50" shape="349.77,426.80 349.15,443.64 348.54,460.41"/>
    </edge>
    <edge id=":105_3" function="internal">
        <lane id=":105_3_0" index="0" disallow="pedestrian tram rail_urban rail rail_electric rail_fast ship" speed="11.55" length="30.37" width="3.50" shape="349.77,426.80 349.52,429.46 349.27,430.76 348.92,432.03 348.46,433.26 347.89,434.45 347.20,435.58 346.40,436.63 345.50,437.59 344.50,438.45 343.42,439.21 342.28,439.87 339.86,440.91 337.32,441.63 334.73,442.09 330.78,442.39 328.14,442.38"/>
    </edge>
    <edge id=":105_4" function="internal">
        <lane id=":105_4_0" index="0" disallow="pedestrian tram rail_urban rail rail_electric rail_fast ship" speed="10.48" length="24.83" width="3.50" shape="328.23,438.89 330.52,438.89 333.96,438.64 336.16,438.28 338.28,437.70 340.30,436.87 341.19,436.38 342.05,435.80 342.84,435.15 343.55,434.43 344.18,433.65 344.73,432.79 345.19,431.88 345.56,430.92 345.85,429.91 346.06,428.90 346.27,426.67"/>
    </edge>
    <edge id=":105_5" function="internal">
        <lane id=":105_5_0" index="0" disallow="pedestrian tram rail_urban rail rail_electric rail_fast ship" speed="12.10" length="33.93" width="3.50" shape="328.23,438.89 330.75,439.04 333.28,439.38 335.79,439.96 338.26,440.84 340.59,442.05 341.73,442.82 342.78,443.67 343.75,444.61 344.64,445.64 345.43,446.73 346.12,447.89 346.72,449.11 347.60,451.57 348.18,454.10 348.48,456.67 348.54,460.41"/>
    </edge>
    <edge id=":106_0" function="internal">
        <lane id=":106_0_0" index="0" disallow="pedestrian tram rail_urban rail rail_electric rail_fast ship" speed="9.93" length="22.51" width="3.50" shape="342.34,532.26 342.33,531.21 342.23,530.21 342.01,529.24 341.68,528.33 341.22,527.48 340.65,526.69 339.97,525.98 339.19,525.33 338.33,524.76 337.40,524.26 336.44,523.84 334.31,523.13 332.13,522.64 328.69,522.18 325.23,521.98"/>
    </edge>
    <edge id=":106_1" function="internal">
        <lane id=":106_1_0" index="0" disallow="pedestrian tram rail_urban rail rail_electric rail_fast ship" speed="36.11" length="31.18" width="3.50" shape="342.34,532.26 342.93,516.67 343.51,501.10"/>
    </edge>
    <edge id=":106_2" function="internal">
        <lane id=":106_2_0" index="0" disallow="pedestrian tram rail_urban rail rail_electric rail_fast ship" speed="36.11" length="31.16" width="3.50" shape="347.01,501.23 346.42,516.80 345.84,532.37"/>
    </edge>
    <edge id=":106_3" function="internal">
        <lane id=":106_3_0" index="0" disallow="pedestrian tram rail_urban rail rail_electric rail_fast ship" speed="12.26" length="34.31" width="3.50" shape="347.01,501.23 346.83,503.78 346.45,506.33 345.84,508.86 344.94,511.35 343.73,513.70 342.95,514.85 342.10,515.91 341.16,516.90 340.14,517.81 339.04,518.62 337.89,519.33 336.66,519.96 334.19,520.90 331.63,521.52 329.04,521.87 325.23,521.98"/>
    </edge>
    <edge id=":106_4" function="internal">
        <lane id=":106_4_0" index="0" disallow="pedestrian tram rail_urban rail rail_electric rail_fast ship" speed="11.26" length="28.79" width="3.50" shape="325.30,518.49 328.62,518.39 330.82,518.09 332.97,517.57 335.04,516.78 336.02,516.27 336.96,515.69 337.85,515.03 338.68,514.29 339.44,513.49 340.13,512.62 340.75,511.70 341.77,509.74 342.52,507.65 343.04,505.50 343.35,503.31 343.51,501.10"/>
    </edge>
    <edge id=":106_5" function="internal">
        <lane id=":106_5_0" index="0" disallow="pedestrian tram rail_urban rail rail_electric rail_fast ship" speed="11.04" length="28.10" width="3.50" shape="325.30,518.49 329.31,518.72 333.28,519.29 335.88,519.92 338.40,520.83 339.61,521.41 340.76,522.08 341.84,522.87 342.83,523.77 343.70,524.79 344.43,525.91 345.01,527.11 345.43,528.38 345.70,529.69 345.83,531.03 345.84,532.37"/>
    </edge>
    <edge id=":107_0" function="internal">
        <lane id=":107_0_0" index="0" disallow="pedestrian tram rail_urban rail rail_electric rail_fast ship" speed="11.20" length="28.42" width="3.50" shape="365.30,482.84 362.02,482.93 359.85,483.20 357.72,483.69 355.67,484.44 354.68,484.91 353.74,485.47 352.84,486.10 352.01,486.80 351.23,487.57 350.53,488.41 349.90,489.30 348.85,491.22 348.08,493.26 347.55,495.38 347.22,497.55 347.07,499.73"/>
    </edge>
    <edge id=":107_1" function="internal">
        <lane id=":107_1_0" index="0" disallow="pedestrian tram rail_urban rail rail_electric rail_fast ship" speed="12.14" length="34.25" width="3.50" shape="365.30,482.84 361.36,482.54 358.77,482.06 356.24,481.33 353.83,480.27 352.68,479.61 351.60,478.86 350.58,478.02 349.65,477.10 348.80,476.09 348.04,475.01 347.38,473.88 346.32,471.46 345.61,468.93 345.18,466.33 345.00,463.70 345.01,461.06"/>
    </edge>
    <edge id=":107_2" function="internal">
        <lane id=":107_2_0" index="0" disallow="pedestrian tram rail_urban rail rail_electric rail_fast ship" speed="11.13" length="28.64" width="3.50" shape="348.51,461.17 348.50,463.49 348.65,465.75 349.01,467.96 349.61,470.07 350.48,472.08 351.00,472.97 351.61,473.84 352.29,474.64 353.03,475.38 353.85,476.05 354.72,476.65 355.62,477.17 357.64,478.06 359.76,478.68 361.96,479.08 365.38,479.34"/>
    </edge>
    <edge id=":107_3" function="internal">
        <lane id=":107_3_0" index="0" disallow="pedestrian tram rail_urban rail rail_electric rail_fast ship" speed="36.11" length="38.59" width="3.50" shape="348.51,461.17 347.79,480.46 347.07,499.73"/>
    </edge>
    <edge id=":107_4" function="internal">
        <lane id=":107_4_0" index="0" disallow="pedestrian tram rail_urban rail rail_electric rail_fast ship" speed="36.11" length="38.56" width="3.50" shape="343.57,499.59 344.29,480.33 345.01,461.06"/>
    </edge>
    <edge id=":107_5" function="internal">
        <lane id=":107_5_0" index="0" disallow="pedestrian tram rail_urban rail rail_electric rail_fast ship" speed="12.21" length="33.95" width="3.50" shape="343.57,499.59 343.75,497.07 344.13,494.55 344.76,492.04 345.69,489.58 346.94,487.28 347.73,486.15 348.60,485.12 349.56,484.16 350.59,483.29 351.69,482.51 352.85,481.83 354.07,481.24 356.52,480.35 359.05,479.77 361.61,479.44 365.38,479.34"/>
    </edge>
    <edge id=":108_0" function="internal">
        <lane id=":108_0_0" index="0" disallow="pedestrian tram rail_urban rail rail_electric rail_fast ship" speed="10.36" length="24.50" width="3.50" shape="367.72,414.73 364.52,414.71 362.39,414.85 360.28,415.15 358.21,415.64 356.21,416.38 355.26,416.86 354.35,417.42 353.50,418.06 352.72,418.79 352.03,419.60 351.43,420.48 350.93,421.42 350.52,422.40 349.99,424.47 349.78,426.58"/>
    </edge>
    <edge id=":108_1" function="internal">
        <lane id=":108_1_0" index="0" disallow="pedestrian tram rail_urban rail rail_electric rail_fast ship" speed="12.24" length="34.38" width="3.50" shape="367.72,414.73 363.77,414.35 361.17,413.82 358.65,413.03 356.25,411.92 355.12,411.24 354.05,410.47 353.04,409.61 352.11,408.66 351.28,407.64 350.53,406.55 349.87,405.40 348.83,402.97 348.13,400.42 347.71,397.81 347.52,395.17 347.54,392.53"/>
    </edge>
    <edge id=":108_2" function="internal">
        <lane id=":108_2_0" index="0" disallow="pedestrian tram rail_urban rail rail_electric rail_fast ship" speed="11.24" length="28.84" width="3.50" shape="351.04,392.64 351.02,394.96 351.18,397.24 351.53,399.47 352.12,401.60 352.99,403.63 353.51,404.54 354.11,405.42 354.78,406.24 355.52,406.99 356.33,407.69 357.20,408.31 358.09,408.86 360.10,409.79 362.22,410.46 364.42,410.90 367.87,411.23"/>
    </edge>
    <edge id=":108_3" function="internal">
        <lane id=":108_3_0" index="0" disallow="pedestrian tram rail_urban rail rail_electric rail_fast ship" speed="36.11" length="33.96" width="3.50" shape="351.04,392.64 350.41,409.62 349.78,426.58"/>
    </edge>
    <edge id=":108_4" function="internal">
        <lane id=":108_4_0" index="0" disallow="pedestrian tram rail_urban rail rail_electric rail_fast ship" speed="36.11" length="33.95" width="3.50" shape="346.28,426.46 346.91,409.49 347.54,392.53"/>
    </edge>
    <edge id=":108_5" function="internal">
        <lane id=":108_5_0" index="0" disallow="pedestrian tram rail_urban rail rail_electric rail_fast ship" speed="11.43" length="30.11" width="3.50" shape="346.28,426.46 346.54,423.87 347.16,421.33 347.65,420.03 348.27,418.81 349.01,417.65 349.88,416.58 350.85,415.61 351.91,414.75 353.04,414.01 354.25,413.36 356.66,412.41 359.16,411.78 361.66,411.40 364.17,411.22 367.87,411.23"/>
    </edge>
    <edge id=":109_0" function="internal">
        <lane id=":109_0_0" index="0" disallow="pedestrian tram rail_urban rail rail_electric rail_fast ship" speed="11.20" length="28.62" width="3.50" shape="362.89,546.80 360.60,546.80 358.34,546.97 356.14,547.33 354.04,547.94 352.04,548.83 351.15,549.35 350.29,549.96 349.48,550.64 348.74,551.39 348.07,552.20 347.46,553.07 346.94,553.97 346.03,555.98 345.39,558.09 344.97,560.28 344.66,563.73"/>
    </edge>
    <edge id=":109_1" function="internal">
        <lane id=":109_1_0" index="0" disallow="pedestrian tram rail_urban rail rail_electric rail_fast ship" speed="11.10" length="28.26" width="3.50" shape="362.89,546.80 360.36,546.66 356.61,546.22 354.08,545.71 351.58,544.97 349.16,543.94 347.94,543.25 346.81,542.46 345.75,541.53 344.79,540.48 343.96,539.30 343.30,538.01 342.81,536.66 342.50,535.27 342.35,533.88 342.33,532.51"/>
    </edge>
    <edge id=":109_2" function="internal">
        <lane id=":109_2_0" index="0" disallow="pedestrian tram rail_urban rail rail_electric rail_fast ship" speed="10.01" length="22.74" width="3.50" shape="345.83,532.62 345.84,533.70 345.97,534.77 346.24,535.82 346.64,536.83 347.19,537.76 347.85,538.61 348.63,539.37 349.48,540.03 350.40,540.61 351.37,541.10 353.39,541.88 355.48,542.44 357.61,542.83 360.84,543.19 363.01,543.30"/>
    </edge>
    <edge id=":109_3" function="internal">
        <lane id=":109_3_0" index="0" disallow="pedestrian tram rail_urban rail rail_electric rail_fast ship" speed="36.11" length="31.13" width="3.50" shape="345.83,532.62 345.24,548.16 344.66,563.73"/>
    </edge>
    <edge id=":109_4" function="internal">
        <lane id=":109_4_0" index="0" disallow="pedestrian tram rail_urban rail rail_electric rail_fast ship" speed="36.11" length="31.11" width="3.50" shape="341.16,563.60 341.75,548.03 342.33,532.51"/>
    </edge>
    <edge id=":109_5" function="internal">
        <lane id=":109_5_0" index="0" disallow="pedestrian tram rail_urban rail rail_electric rail_fast ship" speed="12.20" length="34.19" width="3.50" shape="341.16,563.60 341.52,559.64 342.02,557.07 342.78,554.55 343.86,552.15 344.52,551.02 345.27,549.94 346.11,548.93 347.03,548.00 348.04,547.15 349.11,546.39 350.24,545.72 352.64,544.66 355.17,543.94 357.76,543.50 360.38,543.30 363.01,543.30"/>
    </edge>
    <edge id=":110_0" function="internal">
        <lane id=":110_0_0" index="0" disallow="pedestrian tram rail_urban rail rail_electric rail_fast ship" speed="11.29" length="28.68" width="3.50" shape="347.89,383.24 347.90,381.04 347.73,378.83 347.35,376.66 346.72,374.54 345.80,372.53 345.23,371.59 344.58,370.70 343.86,369.86 343.06,369.09 342.21,368.39 341.30,367.76 339.36,366.71 337.29,365.93 335.16,365.37 332.98,365.00 330.81,364.79"/>
    </edge>
    <edge id=":110_1" function="internal">
        <lane id=":110_1_0" index="0" disallow="pedestrian tram rail_urban rail rail_electric rail_fast ship" speed="36.11" length="39.08" width="3.50" shape="347.89,383.24 348.57,360.62 348.78,344.17"/>
    </edge>
    <edge id=":110_2" function="internal">
        <lane id=":110_2_0" index="0" disallow="pedestrian tram rail_urban rail rail_electric rail_fast ship" speed="36.11" length="39.17" width="3.50" shape="352.27,344.19 352.07,360.69 351.39,383.35"/>
    </edge>
    <edge id=":110_3" function="internal">
        <lane id=":110_3_0" index="0" disallow="pedestrian tram rail_urban rail rail_electric rail_fast ship" speed="11.99" length="34.49" width="3.50" shape="352.28,344.19 352.07,348.00 351.68,350.58 351.03,353.13 350.07,355.59 349.42,356.82 348.69,357.97 347.85,359.07 346.91,360.08 345.88,361.00 344.76,361.82 343.59,362.53 342.33,363.14 339.83,364.02 337.23,364.57 334.62,364.82 330.81,364.79"/>
    </edge>
    <edge id=":110_4" function="internal">
        <lane id=":110_4_0" index="0" disallow="pedestrian tram rail_urban rail rail_electric rail_fast ship" speed="10.98" length="28.70" width="3.50" shape="331.02,361.30 334.31,361.32 336.51,361.11 338.67,360.66 340.75,359.92 341.75,359.43 342.69,358.86 343.58,358.20 344.40,357.46 345.15,356.65 345.82,355.77 346.41,354.84 346.93,353.86 347.73,351.80 348.27,349.66 348.60,347.48 348.78,344.17"/>
    </edge>
    <edge id=":110_5" function="internal">
        <lane id=":110_5_0" index="0" disallow="pedestrian tram rail_urban rail rail_electric rail_fast ship" speed="12.29" length="34.16" width="3.50" shape="331.02,361.30 333.53,361.54 336.06,361.97 338.57,362.63 341.03,363.57 343.34,364.82 344.48,365.61 345.52,366.47 346.50,367.42 347.39,368.45 348.19,369.55 348.90,370.74 350.00,373.15 350.75,375.68 351.20,378.25 351.39,380.82 351.39,383.35"/>
    </edge>
    <edge id=":111_0" function="internal">
        <lane id=":111_0_0" index="0" disallow="pedestrian tram rail_urban rail rail_electric rail_fast ship" speed="11.74" length="30.16" width="3.50" shape="360.83,616.79 357.50,617.02 355.35,617.38 353.25,617.93 351.25,618.68 349.39,619.67 347.70,620.90 346.22,622.36 344.96,624.03 343.94,625.87 343.15,627.86 342.57,629.95 342.17,632.09 341.87,635.45"/>
    </edge>
    <edge id=":111_1" function="internal">
        <lane id=":111_1_0" index="0" disallow="pedestrian tram rail_urban rail rail_electric rail_fast ship" speed="36.11" length="40.22" width="3.50" shape="360.83,616.79 357.77,616.87 339.27,617.78 328.93,618.12 320.64,618.06"/>
    </edge>
    <edge id=":111_2" function="internal">
        <lane id=":111_2_0" index="0" disallow="pedestrian tram rail_urban rail rail_electric rail_fast ship" speed="11.99" length="34.51" width="3.50" shape="360.83,616.79 357.00,616.67 354.40,616.33 351.84,615.72 349.36,614.77 348.12,614.13 346.96,613.40 345.87,612.56 344.85,611.62 343.93,610.59 343.12,609.48 342.40,608.31 341.79,607.06 340.89,604.57 340.32,601.99 340.02,599.39 339.96,595.58"/>
    </edge>
    <edge id=":111_3" function="internal">
        <lane id=":111_3_0" index="0" disallow="pedestrian tram rail_urban rail rail_electric rail_fast ship" speed="10.97" length="28.71" width="3.50" shape="343.46,595.70 343.50,599.00 343.76,601.20 344.23,603.35 344.99,605.43 345.48,606.42 346.05,607.36 346.70,608.25 347.44,609.08 348.25,609.83 349.13,610.50 350.06,611.09 351.04,611.60 353.10,612.39 355.25,612.91 357.44,613.19 360.76,613.29"/>
    </edge>
    <edge id=":111_4" function="internal">
        <lane id=":111_4_0" index="0" disallow="pedestrian tram rail_urban rail rail_electric rail_fast ship" speed="36.11" length="39.78" width="3.50" shape="343.46,595.70 342.67,615.56 341.87,635.45"/>
    </edge>
    <edge id=":111_5" function="internal">
        <lane id=":111_5_0" index="0" disallow="pedestrian tram rail_urban rail rail_electric rail_fast ship" speed="12.55" length="36.48" width="3.50" shape="343.46,595.70 343.29,598.22 342.72,601.96 342.08,604.47 341.17,606.91 339.96,609.26 338.44,611.41 337.52,612.44 336.54,613.37 335.49,614.21 334.35,614.98 332.01,616.20 329.53,617.08 326.99,617.66 324.42,617.98 320.64,618.06"/>
    </edge>
    <edge id=":111_6" function="internal">
        <lane id=":111_6_0" index="0" disallow="pedestrian tram rail_urban rail rail_electric rail_fast ship" speed="11.59" length="30.93" width="3.50" shape="320.73,614.57 324.04,614.49 326.24,614.22 328.39,613.72 330.47,612.98 332.43,611.95 333.34,611.32 334.20,610.63 335.00,609.87 335.74,609.04 337.01,607.23 338.02,605.26 338.78,603.19 339.32,601.04 339.82,597.76 339.96,595.58"/>
    </edge>
    <edge id=":111_7" function="internal">
        <lane id=":111_7_0" index="0" disallow="pedestrian tram rail_urban rail rail_electric rail_fast ship" speed="36.11" length="40.06" width="3.50" shape="320.73,614.57 328.94,614.62 339.21,614.28 357.67,613.38 360.76,613.29"/>
    </edge>
    <edge id=":111_8" function="internal">
        <lane id=":111_8_0" index="0" disallow="pedestrian tram rail_urban rail rail_electric rail_fast ship" speed="12.18" length="34.18" width="3.50" shape="320.73,614.57 324.66,614.86 327.25,615.29 329.79,615.95 332.25,616.89 334.55,618.14 335.63,618.90 336.63,619.75 337.56,620.68 338.40,621.69 339.14,622.77 339.79,623.92 340.34,625.11 341.17,627.60 341.67,630.18 341.88,632.80 341.87,635.45"/>
    </edge>
    <edge id=":111_9" function="internal">
        <lane id=":111_9_0" index="0" disallow="pedestrian tram rail_urban rail rail_electric rail_fast ship" speed="11.17" length="28.53" width="3.50" shape="338.38,635.30 338.39,633.02 338.20,630.79 337.78,628.63 337.08,626.56 336.64,625.62 336.12,624.71 335.51,623.85 334.84,623.05 334.09,622.31 333.28,621.64 332.44,621.05 330.51,620.01 328.46,619.24 326.29,618.68 324.07,618.32 320.64,618.06"/>
    </edge>
    <edge id=":111_10" function="internal">
        <lane id=":111_10_0" index="0" disallow="pedestrian tram rail_urban rail rail_electric rail_fast ship" speed="36.11" length="39.75" width="3.50" shape="338.37,635.30 339.17,615.42 339.96,595.58"/>
    </edge>
    <edge id=":111_11" function="internal">
        <lane id=":111_11_0" index="0" disallow="pedestrian tram rail_urban rail rail_electric rail_fast ship" speed="12.70" length="35.50" width="3.50" shape="338.37,635.30 338.72,631.49 339.18,629.00 339.86,626.56 340.80,624.21 342.03,621.99 343.55,619.96 345.35,618.19 347.40,616.70 349.64,615.51 352.01,614.61 354.46,613.97 356.96,613.56 360.76,613.29"/>
    </edge>
    <edge id=":112_0" function="internal">
        <lane id=":112_0_0" index="0" disallow="pedestrian tram rail_urban rail rail_electric rail_fast ship" speed="9.19" length="24.48" width="3.50" shape="368.52,306.16 367.48,305.62 366.41,305.17 365.29,304.84 364.14,304.66 362.97,304.68 361.83,304.91 360.76,305.37 359.79,306.02 358.94,306.81 358.19,307.71 357.54,308.67 356.97,309.69 356.47,310.75 355.63,312.92 354.96,315.16 354.17,318.57 353.96,319.70"/>
    </edge>
    <edge id=":112_1" function="internal">
        <lane id=":112_1_0" index="0" disallow="pedestrian tram rail_urban rail rail_electric rail_fast ship" speed="36.11" length="30.01" width="3.50" shape="368.52,306.16 366.71,305.12 356.08,298.74 342.97,290.42"/>
    </edge>
    <edge id=":112_2" function="internal">
        <lane id=":112_2_0" index="0" disallow="pedestrian tram rail_urban rail rail_electric rail_fast ship" speed="36.11" length="29.80" width="3.50" shape="344.87,287.49 357.90,295.76 368.48,302.10 370.24,303.11"/>
    </edge>
    <edge id=":112_3" function="internal">
        <lane id=":112_3_0" index="0" disallow="pedestrian tram rail_urban rail rail_electric rail_fast ship" speed="15.14" length="35.58" width="3.50" shape="344.88,287.49 346.81,288.90 348.56,290.51 350.10,292.31 351.42,294.28 352.52,296.38 353.38,298.59 354.04,300.87 354.67,304.37 354.94,307.91 354.91,311.47 354.50,316.20 353.96,319.70"/>
    </edge>
    <edge id=":112_4" function="internal">
        <lane id=":112_4_0" index="0" disallow="pedestrian tram rail_urban rail rail_electric rail_fast ship" speed="14.29" length="31.60" width="3.50" shape="350.50,319.21 351.01,315.88 351.40,311.55 351.44,308.33 351.23,305.15 350.70,302.02 350.16,300.03 349.43,298.10 348.52,296.27 347.41,294.57 346.11,293.02 344.63,291.64 342.97,290.42"/>
    </edge>
    <edge id=":112_5" function="internal">
        <lane id=":112_5_0" index="0" disallow="pedestrian tram rail_urban rail rail_electric rail_fast ship" speed="10.37" length="31.47" width="3.50" shape="350.50,319.21 350.77,317.73 351.71,313.72 352.56,311.04 353.64,308.42 354.31,307.11 355.09,305.85 356.01,304.64 357.08,303.52 358.34,302.53 359.77,301.75 361.34,301.24 362.96,301.03 364.58,301.09 366.12,301.38 367.58,301.85 368.95,302.44 370.24,303.11"/>
    </edge>
    <edge id=":113_0" function="internal">
        <lane id=":113_0_0" index="0" disallow="pedestrian tram rail_urban rail rail_electric rail_fast ship" speed="16.57" length="35.47" width="3.50" shape="512.60,377.36 511.60,377.40 508.51,377.76 505.53,378.48 502.63,379.54 499.87,380.91 497.24,382.57 494.76,384.48 492.43,386.58 489.53,389.66 486.87,392.97 484.42,396.47"/>
    </edge>
    <edge id=":113_1" function="internal">
        <lane id=":113_1_0" index="0" disallow="pedestrian tram rail_urban rail rail_electric rail_fast ship" speed="29.15" length="40.23" width="3.50" shape="512.60,377.36 504.13,377.36 496.73,377.00 490.42,376.32 485.21,375.43 481.10,374.43 477.09,373.10 474.18,371.84 473.21,371.34"/>
    </edge>
    <edge id=":113_2" function="internal">
        <lane id=":113_2_0" index="0" disallow="pedestrian tram rail_urban rail rail_electric rail_fast ship" speed="28.49" length="38.43" width="3.50" shape="474.87,368.26 475.72,368.70 478.45,369.88 482.23,371.12 486.13,372.05 491.11,372.89 497.18,373.52 504.32,373.86 512.53,373.86"/>
    </edge>
    <edge id=":113_3" function="internal">
        <lane id=":113_3_0" index="0" disallow="pedestrian tram rail_urban rail rail_electric rail_fast ship" speed="12.03" length="34.89" width="3.50" shape="474.87,368.26 478.35,370.31 480.55,371.85 482.61,373.56 484.48,375.48 486.09,377.63 486.76,378.79 487.33,380.00 487.78,381.26 488.11,382.56 488.31,383.89 488.37,385.23 488.30,386.57 488.12,387.90 487.83,389.21 486.97,391.74 485.81,394.16 484.42,396.47"/>
    </edge>
    <edge id=":113_4" function="internal">
        <lane id=":113_4_0" index="0" disallow="pedestrian tram rail_urban rail rail_electric rail_fast ship" speed="11.01" length="29.03" width="3.50" shape="481.47,394.60 482.69,392.58 483.65,390.54 484.36,388.41 484.58,387.38 484.72,386.32 484.76,385.26 484.69,384.20 484.53,383.17 484.26,382.15 483.89,381.16 483.42,380.20 482.88,379.30 481.53,377.52 479.94,375.92 478.18,374.46 476.28,373.14 473.21,371.34"/>
    </edge>
    <edge id=":113_5" function="internal">
        <lane id=":113_5_0" index="0" disallow="pedestrian tram rail_urban rail rail_electric rail_fast ship" speed="17.34" length="38.92" width="3.50" shape="481.47,394.59 484.13,390.80 487.00,387.24 490.14,383.92 492.69,381.64 495.42,379.57 498.33,377.75 501.41,376.25 504.63,375.09 507.97,374.30 511.37,373.91 512.53,373.86"/>
    </edge>
    <edge id=":114_0" function="internal">
        <lane id=":114_0_0" index="0" disallow="pedestrian tram rail_urban rail rail_electric rail_fast ship" speed="11.23" length="28.73" width="3.50" shape="401.69,633.39 401.54,631.10 401.23,628.86 400.70,626.69 399.94,624.64 398.90,622.71 398.30,621.87 397.62,621.06 396.87,620.32 396.06,619.64 395.19,619.03 394.26,618.49 393.32,618.03 391.23,617.27 389.06,616.76 386.84,616.47 383.36,616.36"/>
    </edge>
    <edge id=":114_1" function="internal">