<routes>
	<vehicle depart="0.1" departLane="0" departPos="17.135609986085846" departSpeed="2.4163287" id="333" type="bicycle">
		<route edges=":114_1 4748"/>
	</vehicle>
	<vehicle depart="0.1" departLane="0" departPos="39.823196037750485" departSpeed="4.8435483" id="382" type="bicycle">
		<route edges=":115_0 4747 4744"/>
	</vehicle>
	<vehicle depart="0.1" departLane="0" departPos="43.558488808606846" departSpeed="0.0" id="345" type="passenger">
		<route edges="4681 4747"/>
	</vehicle>
	<vehicle depart="0.1" departLane="0" departPos="33.266606777196685" departSpeed="0.0" id="361" type="passenger">
		<route edges="4802 4744"/>
	</vehicle>
	<vehicle depart="0.1" departLane="0" departPos="7.960916076680855" departSpeed="1.2976975" id="372" type="passenger">
		<route edges="4744 4613"/>
	</vehicle>
	<vehicle depart="0.1" departLane="0" departPos="22.08686866780684" departSpeed="0.0" id="375" type="passenger">
		<route edges="4747 4744"/>
	</vehicle>
	<vehicle depart="0.1" departLane="0" departPos="14.544188581312566" departSpeed="0.039806106" id="379" type="passenger">
		<route edges="4747 4744"/>
	</vehicle>
	<vehicle depart="0.1" departLane="0" departPos="25.85023182885288" departSpeed="0.00037873275" id="380" type="passenger">
		<route edges="4802 4744"/>
	</vehicle>
</routes>
