<routes>
	<vehicle depart="0.1" departLane="0" departPos="8.954292173782903" departSpeed="2.1579922" id="36" type="passenger">
		<route edges=":39_3 1753"/>
	</vehicle>
	<vehicle depart="0.1" departLane="1" departPos="35.37256711467087" departSpeed="2.5627248" id="311" type="passenger">
		<route edges="1781 2478"/>
	</vehicle>
	<vehicle depart="0.1" departLane="0" departPos="25.54404358185184" departSpeed="0.92670225" id="319" type="passenger">
		<route edges="1781 1753"/>
	</vehicle>
	<vehicle depart="0.1" departLane="1" departPos="24.4176182358853" departSpeed="0.11712993" id="332" type="passenger">
		<route edges="1781 2478"/>
	</vehicle>
	<vehicle depart="0.1" departLane="0" departPos="19.348045780796202" departSpeed="14.631132" id="362" type="passenger">
		<route edges="2478 4331 2181 2184"/>
	</vehicle>
	<vehicle depart="0.1" departLane="0" departPos="8.267635174092572" departSpeed="14.094516" id="365" type="passenger">
		<route edges="2478 4331 2181"/>
	</vehicle>
	<vehicle depart="0.1" departLane="0" departPos="49.63007543599826" departSpeed="13.166303" id="368" type="passenger">
		<route edges=":39_0 2478 4331 2181"/>
	</vehicle>
	<vehicle depart="0.1" departLane="0" departPos="31.634618740456073" departSpeed="12.163876" id="371" type="passenger">
		<route edges=":39_0 2478 4331"/>
	</vehicle>
	<vehicle depart="0.1" departLane="0" departPos="20.381269024287047" departSpeed="16.409516" id="372" type="passenger">
		<route edges=":39_1 3961 2224"/>
	</vehicle>
	<vehicle depart="0.1" departLane="0" departPos="5.63771632336476" departSpeed="6.6226495" id="376" type="passenger">
		<route edges=":39_0 2478"/>
	</vehicle>
</routes>
