<routes>
	<vehicle depart="0.1" departLane="0" departPos="24.90164125735997" departSpeed="0.20441218" id="317" type="passenger">
		<route edges=":70_2 3629"/>
	</vehicle>
	<vehicle depart="0.1" departLane="0" departPos="108.54990912119875" departSpeed="0.0" id="318" type="passenger">
		<route edges="3589 3898"/>
	</vehicle>
	<vehicle depart="0.1" departLane="0" departPos="25.84182992247384" departSpeed="6.0692484" id="324" type="passenger">
		<route edges=":70_11 3793 3575"/>
	</vehicle>
	<vehicle depart="0.1" departLane="0" departPos="16.406385587728664" departSpeed="6.2985177" id="344" type="passenger">
		<route edges=":71_4 3902 3793"/>
	</vehicle>
	<vehicle depart="0.1" departLane="0" departPos="15.929315530159924" departSpeed="2.151547" id="345" type="passenger">
		<route edges=":70_11 3793"/>
	</vehicle>
	<vehicle depart="0.1" departLane="0" departPos="21.79094398059579" departSpeed="4.2323327" id="349" type="passenger">
		<route edges="3902 3629"/>
	</vehicle>
	<vehicle depart="0.1" departLane="0" departPos="5.799548047006333" departSpeed="4.1644347" id="380" type="passenger">
		<route edges="3901 3898"/>
	</vehicle>
	<vehicle depart="0.1" departLane="0" departPos="30.335710335859375" departSpeed="10.75074" id="394" type="passenger">
		<route edges=":70_5 3338 3652"/>
	</vehicle>
	<vehicle depart="0.1" departLane="0" departPos="38.01943943120744" departSpeed="10.648892" id="3101" type="passenger">
		<route edges="3628 3901"/>
	</vehicle>
	<vehicle depart="0.1" departLane="0" departPos="33.507533721175875" departSpeed="1.9524897" id="350" type="truck">
		<route edges="3337 3793 3575"/>
	</vehicle>
</routes>
