<routes>
	<vehicle depart="0.1" departLane="1" departPos="29.770804920459252" departSpeed="0.0" id="38" type="bicycle">
		<route edges="47715 47788"/>
	</vehicle>
	<vehicle depart="0.1" departLane="0" departPos="20.199547026300905" departSpeed="5.7941052" id="355" type="bicycle">
		<route edges=":23_4 47717"/>
	</vehicle>
	<vehicle depart="0.1" departLane="0" departPos="64.95200446718506" departSpeed="0.98273258" id="33" type="passenger">
		<route edges="47735 47717"/>
	</vehicle>
	<vehicle depart="0.1" departLane="1" departPos="29.770839207833376" departSpeed="0.0" id="318" type="passenger">
		<route edges="47715 47788"/>
	</vehicle>
	<vehicle depart="0.1" departLane="1" departPos="22.267936625418827" departSpeed="0.0" id="322" type="passenger">
		<route edges="47715 47788"/>
	</vehicle>
	<vehicle depart="0.1" departLane="0" departPos="9.552048503797181" departSpeed="0.082578387" id="340" type="passenger">
		<route edges=":23_5 47734"/>
	</vehicle>
	<vehicle depart="0.1" departLane="1" departPos="11.901066460701687" departSpeed="0.15872772" id="347" type="passenger">
		<route edges="47775 47734"/>
	</vehicle>
	<vehicle depart="0.1" departLane="0" departPos="21.900850401918493" departSpeed="7.6999938" id="358" type="passenger">
		<route edges="47775 47717 48030"/>
	</vehicle>
	<vehicle depart="0.1" departLane="0" departPos="24.674518943848778" departSpeed="3.5475732" id="359" type="passenger">
		<route edges="47918 47775 47788"/>
	</vehicle>
	<vehicle depart="0.1" departLane="0" departPos="9.369360386780782" departSpeed="12.542325" id="354" type="truck">
		<route edges=":23_9 47734"/>
	</vehicle>
</routes>
