<routes>
	<vehicle depart="0.1" departLane="0" departPos="61.210593868195566" departSpeed="1.4047473" id="313" type="passenger">
		<route edges="5666 5975"/>
	</vehicle>
	<vehicle depart="0.1" departLane="0" departPos="53.96804608623326" departSpeed="0.64842113" id="314" type="passenger">
		<route edges="5666 5975"/>
	</vehicle>
	<vehicle depart="0.1" departLane="0" departPos="15.159797229409824" departSpeed="8.9972894" id="320" type="passenger">
		<route edges=":32_1 5700"/>
	</vehicle>
	<vehicle depart="0.1" departLane="0" departPos="45.773258389115526" departSpeed="0.26422779" id="321" type="passenger">
		<route edges="5666 5975"/>
	</vehicle>
	<vehicle depart="0.1" departLane="0" departPos="2.5" departSpeed="0.38707746" id="322" type="passenger">
		<route edges=":32_1 5700"/>
	</vehicle>
	<vehicle depart="0.1" departLane="0" departPos="37.307988101674646" departSpeed="0.50460848" id="327" type="passenger">
		<route edges="5666 5975"/>
	</vehicle>
	<vehicle depart="0.1" departLane="0" departPos="18.029584919704952" departSpeed="0.88037377" id="329" type="passenger">
		<route edges="5703 5700"/>
	</vehicle>
	<vehicle depart="0.1" departLane="0" departPos="21.669691317214344" departSpeed="0.25896639" id="344" type="passenger">
		<route edges=":32_3 5665"/>
	</vehicle>
	<vehicle depart="0.1" departLane="0" departPos="23.531400488963445" departSpeed="0.47726068" id="331" type="motorcycle">
		<route edges="5666 5975"/>
	</vehicle>
</routes>
