<routes>
	<vehicle depart="0.1" departLane="0" departPos="54.01452177964983" departSpeed="0.0" id="32" type="passenger">
		<route edges="1614 1327"/>
	</vehicle>
	<vehicle depart="0.1" departLane="0" departPos="49.0223881011164" departSpeed="4.1221633" id="311" type="passenger">
		<route edges="1620 1561"/>
	</vehicle>
	<vehicle depart="0.1" departLane="0" departPos="35.80372498605144" departSpeed="5.0465085" id="313" type="passenger">
		<route edges="1620 1561"/>
	</vehicle>
	<vehicle depart="0.1" departLane="0" departPos="46.51394783291729" departSpeed="0.0" id="318" type="passenger">
		<route edges="1614 1327"/>
	</vehicle>
	<vehicle depart="0.1" departLane="0" departPos="22.149364817941542" departSpeed="5.6247634" id="348" type="passenger">
		<route edges="1620 1561"/>
	</vehicle>
	<vehicle depart="0.1" departLane="0" departPos="8.139919621448739" departSpeed="5.9635386" id="355" type="passenger">
		<route edges="1620 1561"/>
	</vehicle>
	<vehicle depart="0.1" departLane="0" departPos="32.810051075831915" departSpeed="14.08404" id="364" type="passenger">
		<route edges=":77_2 1327 1324"/>
	</vehicle>
	<vehicle depart="0.1" departLane="0" departPos="55.169608609441575" departSpeed="2.6760535" id="366" type="passenger">
		<route edges="1453 2212"/>
	</vehicle>
	<vehicle depart="0.1" departLane="0" departPos="39.3517567626387" departSpeed="14.335489" id="373" type="passenger">
		<route edges="1330 1327"/>
	</vehicle>
	<vehicle depart="0.1" departLane="0" departPos="68.49422714159725" departSpeed="0.0045012369" id="361" type="truck">
		<route edges="1453 2212"/>
	</vehicle>
</routes>
