<!-- generated on 2020-12-18 15:55:11.074848 by ipykernel_launcher.py v1_2_0+5214-53edc58fcd
-->
<nodes>
	<node id="1" type="from" x="-35.426689999999994" y="37.59513"/>
	<node id="2" type="to" x="88.17681" y="-82.77517999999999"/>
	<node id="3" type="to" x="94.91116666666666" y="-91.00269166666668"/>
	<node id="4" type="from" x="-24.633499999999998" y="-29.20365"/>
</nodes>
