<routes>
	<vehicle depart="0.1" departLane="0" departPos="21.31179516929589" departSpeed="23.5864" id="34" type="passenger">
		<route edges="61"/>
	</vehicle>
	<vehicle depart="0.1" departLane="1" departPos="0" departSpeed="26.6539" id="36" type="passenger">
		<route edges="61"/>
	</vehicle>
	<vehicle depart="0.1" departLane="0" departPos="0" departSpeed="27.6374" id="37" type="passenger">
		<route edges="56 67 61"/>
	</vehicle>
	<vehicle depart="0.1" departLane="1" departPos="0" departSpeed="23.5358" id="39" type="passenger">
		<route edges="68 61"/>
	</vehicle>
	<vehicle depart="0.1" departLane="0" departPos="0" departSpeed="23.9858" id="310" type="passenger">
		<route edges="66 68 61"/>
	</vehicle>
	<vehicle depart="0.1" departLane="1" departPos="220.89146315117964" departSpeed="25.4139" id="311" type="passenger">
		<route edges="58 66 68 61"/>
	</vehicle>
	<vehicle depart="0.1" departLane="0" departPos="125.18116583088195" departSpeed="29.3663" id="312" type="passenger">
		<route edges="59 62 56 67 61"/>
	</vehicle>
	<vehicle depart="0.1" departLane="0" departPos="209.72540627906852" departSpeed="25.1793" id="313" type="passenger">
		<route edges="58 66 68 61"/>
	</vehicle>
	<vehicle depart="0.1" departLane="1" departPos="181.74896094013536" departSpeed="24.6534" id="314" type="passenger">
		<route edges="58 66 68 61"/>
	</vehicle>
	<vehicle depart="0.1" departLane="0" departPos="163.90458392692165" departSpeed="22.2866" id="316" type="passenger">
		<route edges="58 66 68 61"/>
	</vehicle>
	<vehicle depart="0.1" departLane="1" departPos="142.86004769709785" departSpeed="23.3066" id="317" type="passenger">
		<route edges="58 66 55 68 61"/>
	</vehicle>
	<vehicle depart="0.1" departLane="0" departPos="0" departSpeed="20.796" id="318" type="passenger">
		<route edges="59 62 56 67 61"/>
	</vehicle>
	<vehicle depart="0.1" departLane="0" departPos="130.58281889140406" departSpeed="22.5178" id="319" type="passenger">
		<route edges="58 66 55 68 61"/>
	</vehicle>
	<vehicle depart="0.1" departLane="1" departPos="104.84702311587532" departSpeed="20.0408" id="320" type="passenger">
		<route edges="58 66 68 61"/>
	</vehicle>
	<vehicle depart="0.1" departLane="0" departPos="92.07422378881925" departSpeed="18.592" id="321" type="passenger">
		<route edges="58 66 55 68 61"/>
	</vehicle>
	<vehicle depart="0.1" departLane="0" departPos="0" departSpeed="17.5104" id="322" type="passenger">
		<route edges="65 59 62 56 67 61"/>
	</vehicle>
	<vehicle depart="0.1" departLane="1" departPos="74.59976624188006" departSpeed="16.5474" id="323" type="passenger">
		<route edges="58 66 68 61"/>
	</vehicle>
	<vehicle depart="0.1" departLane="0" departPos="64.31952902622315" departSpeed="15.4541" id="324" type="passenger">
		<route edges="58 66 55 68 61"/>
	</vehicle>
	<vehicle depart="0.1" departLane="0" departPos="68.69710141592581" departSpeed="13.8241" id="325" type="passenger">
		<route edges="53 65 59 62 56 67 61"/>
	</vehicle>
	<vehicle depart="0.1" departLane="1" departPos="51.92040251928485" departSpeed="14.3031" id="326" type="passenger">
		<route edges="58 66 68 61"/>
	</vehicle>
	<vehicle depart="0.1" departLane="0" departPos="41.85451606572159" departSpeed="12.8197" id="327" type="passenger">
		<route edges="58 66 55 68 61"/>
	</vehicle>
	<vehicle depart="0.1" departLane="0" departPos="0" departSpeed="10.8838" id="328" type="passenger">
		<route edges="53 65 59 62 56 67 61"/>
	</vehicle>
	<vehicle depart="0.1" departLane="1" departPos="31.157625232013775" departSpeed="10.8142" id="329" type="passenger">
		<route edges="58 66 55 68 61"/>
	</vehicle>
	<vehicle depart="0.1" departLane="1" departPos="0" departSpeed="7.8789" id="331" type="passenger">
		<route edges="58 66 55 68 61"/>
	</vehicle>
	<vehicle depart="0.1" departLane="0" departPos="0" departSpeed="6.1929" id="333" type="passenger">
		<route edges="58 66 55 68 61"/>
	</vehicle>
	<vehicle depart="0.1" departLane="1" departPos="0" departSpeed="5.3845" id="335" type="passenger">
		<route edges="58 66 55 68 61"/>
	</vehicle>
</routes>
