<routes>
	<vehicle depart="0.1" departLane="0" departPos="7.974941754403143" departSpeed="1.0771619" id="329" type="bicycle">
		<route edges=":39_0 51475 51478"/>
	</vehicle>
	<vehicle depart="0.1" departLane="0" departPos="12.756302254197198" departSpeed="8.106524" id="331" type="bus">
		<route edges="51474 51393"/>
	</vehicle>
	<vehicle depart="0.1" departLane="0" departPos="2.5" departSpeed="2.3812355" id="38" type="passenger">
		<route edges="51475 51478"/>
	</vehicle>
	<vehicle depart="0.1" departLane="0" departPos="2.5" departSpeed="2.6076818" id="314" type="passenger">
		<route edges=":42_0 51394"/>
	</vehicle>
	<vehicle depart="0.1" departLane="0" departPos="21.766933438389575" departSpeed="2.6966162" id="316" type="passenger">
		<route edges="51378 51375 51658"/>
	</vehicle>
	<vehicle depart="0.1" departLane="0" departPos="16.44955994683978" departSpeed="12.355089" id="319" type="passenger">
		<route edges=":42_5 51660 51379"/>
	</vehicle>
	<vehicle depart="0.1" departLane="0" departPos="5.027504165356408" departSpeed="0.0" id="322" type="passenger">
		<route edges="51391 51394"/>
	</vehicle>
	<vehicle depart="0.1" departLane="0" departPos="20.410699161740606" departSpeed="0.0" id="333" type="passenger">
		<route edges="51472 51475"/>
	</vehicle>
	<vehicle depart="0.1" departLane="0" departPos="28.02978352258232" departSpeed="8.2360317" id="335" type="passenger">
		<route edges=":40_5 51474 51471"/>
	</vehicle>
	<vehicle depart="0.1" departLane="0" departPos="12.908994104131475" departSpeed="0.0" id="339" type="passenger">
		<route edges="51472 51475"/>
	</vehicle>
</routes>
