<routes>
	<vehicle depart="0.1" departLane="0" departPos="5.0491575590689" departSpeed="2.9168644" id="37" type="bicycle">
		<route edges=":33_0 6906"/>
	</vehicle>
	<vehicle depart="0.1" departLane="0" departPos="63.06149353527545" departSpeed="0.75922192" id="36" type="passenger">
		<route edges="6911 6909"/>
	</vehicle>
	<vehicle depart="0.1" departLane="0" departPos="69.7736880689791" departSpeed="0.0" id="311" type="passenger">
		<route edges="6938 6906"/>
	</vehicle>
	<vehicle depart="0.1" departLane="0" departPos="2.5" departSpeed="4.3245764" id="312" type="passenger">
		<route edges=":33_0 6906"/>
	</vehicle>
	<vehicle depart="0.1" departLane="0" departPos="53.427982787151045" departSpeed="0.35701157" id="313" type="passenger">
		<route edges="6911 6909"/>
	</vehicle>
	<vehicle depart="0.1" departLane="0" departPos="40.32995641313347" departSpeed="1.3841157" id="315" type="passenger">
		<route edges="6911 6909"/>
	</vehicle>
	<vehicle depart="0.1" departLane="0" departPos="26.360302416353147" departSpeed="0.14258599" id="326" type="passenger">
		<route edges="6911 6909"/>
	</vehicle>
	<vehicle depart="0.1" departLane="0" departPos="16.396365153527405" departSpeed="0.99835205" id="340" type="passenger">
		<route edges="6911 6909"/>
	</vehicle>
	<vehicle depart="0.1" departLane="0" departPos="11.093946880007302" departSpeed="0.34424643" id="333" type="motorcycle">
		<route edges="6911 6909"/>
	</vehicle>
</routes>
