<routes>
	<vehicle depart="0.1" departLane="0" departPos="8.446783211563872" departSpeed="5.2578208" id="37" type="passenger">
		<route edges=":34_2 78024 78027"/>
	</vehicle>
	<vehicle depart="0.1" departLane="0" departPos="23.377014757187872" departSpeed="5.8610237" id="325" type="passenger">
		<route edges="77394 78024"/>
	</vehicle>
	<vehicle depart="0.1" departLane="0" departPos="8.494556016023669" departSpeed="3.0208803" id="331" type="passenger">
		<route edges="77394 78020"/>
	</vehicle>
	<vehicle depart="0.1" departLane="0" departPos="30.946388331348633" departSpeed="6.5265926" id="340" type="passenger">
		<route edges="78023 77393"/>
	</vehicle>
	<vehicle depart="0.1" departLane="0" departPos="15.851456296970943" departSpeed="21.00489" id="352" type="passenger">
		<route edges="78021 77393"/>
	</vehicle>
	<vehicle depart="0.1" departLane="0" departPos="3.2853842725000844" departSpeed="11.386157" id="347" type="motorcycle">
		<route edges=":34_4 77393"/>
	</vehicle>
</routes>
