<routes>
	<vehicle depart="0.1" departLane="1" departPos="101.42991980534723" departSpeed="12.239722" id="1" type="passenger">
		<route edges="26 28 24"/>
	</vehicle>
	<vehicle depart="0.1" departLane="0" departPos="0" departSpeed="11.19874" id="2" type="passenger">
		<route edges="26 27 24"/>
	</vehicle>
	<vehicle depart="0.1" departLane="0" departPos="90.31641746473363" departSpeed="11.393669" id="3" type="passenger">
		<route edges="26 27 24"/>
	</vehicle>
</routes>
