<!-- generated on 2020-12-18 16:22:53.489027 by ipykernel_launcher.py v1_2_0+5214-53edc58fcd
-->
<connections>
	<connection contPos="-4.0" from="1450" fromLane="0" keepClear="true" to="1548" toLane="0"/>
	<connection contPos="-4.0" from="1450" fromLane="0" keepClear="true" to="1562" toLane="0"/>
	<connection contPos="-4.0" from="1451" fromLane="0" keepClear="true" to="1574" toLane="0"/>
	<connection contPos="-4.0" from="1453" fromLane="1" keepClear="true" to="1568" toLane="1"/>
	<connection contPos="-4.0" from="1453" fromLane="0" keepClear="true" to="1566" toLane="0"/>
	<connection contPos="-4.0" from="1453" fromLane="0" keepClear="true" to="1568" toLane="0"/>
	<connection contPos="-4.0" from="1454" fromLane="0" keepClear="true" to="1563" toLane="0"/>
	<connection contPos="-4.0" from="1454" fromLane="0" keepClear="true" to="1565" toLane="0"/>
	<connection contPos="-4.0" from="1457" fromLane="0" keepClear="true" to="1560" toLane="0"/>
	<connection contPos="-4.0" from="1457" fromLane="0" keepClear="true" to="1558" toLane="0"/>
	<connection contPos="-4.0" from="1458" fromLane="0" keepClear="true" to="1576" toLane="0"/>
	<connection contPos="-4.0" from="1458" fromLane="0" keepClear="true" to="1625" toLane="0"/>
	<connection contPos="-4.0" from="1458" fromLane="0" keepClear="true" to="1557" toLane="0"/>
	<connection contPos="-4.0" from="1461" fromLane="1" keepClear="true" to="1619" toLane="1"/>
	<connection contPos="-4.0" from="1461" fromLane="0" keepClear="true" to="1621" toLane="0"/>
	<connection contPos="-4.0" from="1461" fromLane="0" keepClear="true" to="1619" toLane="0"/>
	<connection contPos="-4.0" from="1463" fromLane="1" keepClear="true" to="1617" toLane="1"/>
	<connection contPos="-4.0" from="1463" fromLane="0" keepClear="true" to="1617" toLane="0"/>
	<connection contPos="-4.0" from="1465" fromLane="0" keepClear="true" to="1616" toLane="0"/>
	<connection contPos="-4.0" from="1465" fromLane="0" keepClear="true" to="1612" toLane="0"/>
	<connection contPos="-4.0" from="1466" fromLane="0" keepClear="true" to="1615" toLane="0"/>
	<connection contPos="-4.0" from="1466" fromLane="0" keepClear="true" to="1551" toLane="0"/>
	<connection contPos="-4.0" from="1466" fromLane="0" keepClear="true" to="1554" toLane="0"/>
	<connection contPos="-4.0" from="1467" fromLane="0" keepClear="true" to="1550" toLane="0"/>
	<connection contPos="-4.0" from="1468" fromLane="0" keepClear="true" to="1544" toLane="0"/>
	<connection contPos="-4.0" from="1468" fromLane="0" keepClear="true" to="1546" toLane="0"/>
	<connection contPos="-4.0" from="1470" fromLane="1" keepClear="true" to="1537" toLane="1"/>
	<connection contPos="-4.0" from="1470" fromLane="0" keepClear="true" to="1537" toLane="0"/>
	<connection contPos="-4.0" from="1470" fromLane="0" keepClear="true" to="1539" toLane="0"/>
	<connection contPos="-4.0" from="1472" fromLane="1" keepClear="true" to="1555" toLane="0"/>
	<connection contPos="-4.0" from="1472" fromLane="1" keepClear="true" to="1533" toLane="1"/>
	<connection contPos="-4.0" from="1472" fromLane="0" keepClear="true" to="1533" toLane="0"/>
	<connection contPos="-4.0" from="1473" fromLane="0" keepClear="true" to="1534" toLane="0"/>
	<connection contPos="-4.0" from="1473" fromLane="0" keepClear="true" to="1532" toLane="0"/>
	<connection contPos="-4.0" from="1474" fromLane="0" keepClear="true" to="1527" toLane="0"/>
	<connection contPos="-4.0" from="1474" fromLane="0" keepClear="true" to="1530" toLane="0"/>
	<connection contPos="-4.0" from="1476" fromLane="0" keepClear="true" to="1628" toLane="0"/>
	<connection contPos="-4.0" from="1477" fromLane="0" keepClear="true" to="1524" toLane="0"/>
	<connection contPos="-4.0" from="1477" fromLane="0" keepClear="true" to="1528" toLane="0"/>
	<connection contPos="-4.0" from="1478" fromLane="0" keepClear="true" to="1609" toLane="0"/>
	<connection contPos="-4.0" from="1478" fromLane="0" keepClear="true" to="1610" toLane="0"/>
	<connection contPos="-4.0" from="1479" fromLane="0" keepClear="true" to="1607" toLane="0"/>
	<connection contPos="-4.0" from="1479" fromLane="0" keepClear="true" to="1606" toLane="0"/>
	<connection contPos="-4.0" from="1480" fromLane="0" keepClear="true" to="1605" toLane="0"/>
	<connection contPos="-4.0" from="1480" fromLane="0" keepClear="true" to="1603" toLane="0"/>
	<connection contPos="-4.0" from="1482" fromLane="0" keepClear="true" to="1601" toLane="0"/>
	<connection contPos="-4.0" from="1482" fromLane="0" keepClear="true" to="1600" toLane="0"/>
	<connection contPos="-4.0" from="1483" fromLane="0" keepClear="true" to="1598" toLane="0"/>
	<connection contPos="-4.0" from="1483" fromLane="0" keepClear="true" to="1595" toLane="0"/>
	<connection contPos="-4.0" from="1484" fromLane="0" keepClear="true" to="1611" toLane="0"/>
	<connection contPos="-4.0" from="1484" fromLane="0" keepClear="true" to="1593" toLane="0"/>
	<connection contPos="-4.0" from="1485" fromLane="0" keepClear="true" to="1519" toLane="0"/>
	<connection contPos="-4.0" from="1485" fromLane="0" keepClear="true" to="1596" toLane="0"/>
	<connection contPos="-4.0" from="1486" fromLane="0" keepClear="true" to="1521" toLane="0"/>
	<connection contPos="-4.0" from="1487" fromLane="0" keepClear="true" to="1523" toLane="0"/>
	<connection contPos="-4.0" from="1487" fromLane="0" keepClear="true" to="1589" toLane="0"/>
	<connection contPos="-4.0" from="1488" fromLane="0" keepClear="true" to="1588" toLane="0"/>
	<connection contPos="-4.0" from="1488" fromLane="0" keepClear="true" to="1590" toLane="0"/>
	<connection contPos="-4.0" from="1489" fromLane="0" keepClear="true" to="1584" toLane="0"/>
	<connection contPos="-4.0" from="1489" fromLane="0" keepClear="true" to="1586" toLane="0"/>
	<connection contPos="-4.0" from="1490" fromLane="0" keepClear="true" to="1580" toLane="0"/>
	<connection contPos="-4.0" from="1490" fromLane="0" keepClear="true" to="1583" toLane="0"/>
	<connection contPos="-4.0" from="1491" fromLane="0" keepClear="true" to="1577" toLane="0"/>
	<connection contPos="-4.0" from="1491" fromLane="0" keepClear="true" to="1579" toLane="0"/>
	<connection contPos="-4.0" from="1492" fromLane="0" keepClear="true" to="1592" toLane="0"/>
	<connection contPos="-4.0" from="1492" fromLane="0" keepClear="true" to="1581" toLane="0"/>
	<connection contPos="-4.0" from="1493" fromLane="0" keepClear="true" to="1573" toLane="0"/>
	<connection contPos="-4.0" from="1493" fromLane="0" keepClear="true" to="1571" toLane="0"/>
	<connection contPos="-4.0" from="1494" fromLane="0" keepClear="true" to="1536" toLane="0"/>
	<connection contPos="-4.0" from="1494" fromLane="0" keepClear="true" to="1525" toLane="0"/>
	<connection contPos="-4.0" from="1495" fromLane="0" keepClear="true" to="1561" toLane="0"/>
	<connection contPos="-4.0" from="1496" fromLane="0" keepClear="true" to="1545" toLane="0"/>
	<connection contPos="-4.0" from="1497" fromLane="0" keepClear="true" to="1582" toLane="0"/>
	<connection contPos="-4.0" from="1498" fromLane="0" keepClear="true" to="1564" toLane="0"/>
	<connection contPos="-4.0" from="1498" fromLane="0" keepClear="true" to="1608" toLane="0"/>
	<connection contPos="-4.0" from="1499" fromLane="0" keepClear="true" to="1604" toLane="0"/>
	<connection contPos="-4.0" from="1500" fromLane="0" keepClear="true" to="1585" toLane="0"/>
	<connection contPos="-4.0" from="1500" fromLane="0" keepClear="true" to="1627" toLane="0"/>
	<connection contPos="-4.0" from="1501" fromLane="0" keepClear="true" to="1531" toLane="0"/>
	<connection contPos="-4.0" from="1501" fromLane="0" keepClear="true" to="1547" toLane="0"/>
	<connection contPos="-4.0" from="1502" fromLane="0" keepClear="true" to="1591" toLane="0"/>
	<connection contPos="-4.0" from="1502" fromLane="0" keepClear="true" to="1587" toLane="0"/>
	<connection contPos="-4.0" from="1503" fromLane="0" keepClear="true" to="1520" toLane="0"/>
	<connection contPos="-4.0" from="1503" fromLane="0" keepClear="true" to="1569" toLane="0"/>
	<connection contPos="-4.0" from="1504" fromLane="0" keepClear="true" to="1535" toLane="0"/>
	<connection contPos="-4.0" from="1504" fromLane="0" keepClear="true" to="1553" toLane="0"/>
	<connection contPos="-4.0" from="1504" fromLane="0" keepClear="true" to="1543" toLane="0"/>
	<connection contPos="-4.0" from="1505" fromLane="0" keepClear="true" to="1559" toLane="0"/>
	<connection contPos="-4.0" from="1505" fromLane="0" keepClear="true" to="1540" toLane="0"/>
	<connection contPos="-4.0" from="1506" fromLane="0" keepClear="true" to="1599" toLane="0"/>
	<connection contPos="-4.0" from="1506" fromLane="0" keepClear="true" to="1624" toLane="0"/>
	<connection contPos="-4.0" from="1507" fromLane="0" keepClear="true" to="1620" toLane="0"/>
	<connection contPos="-4.0" from="1507" fromLane="0" keepClear="true" to="1552" toLane="0"/>
	<connection contPos="-4.0" from="1508" fromLane="0" keepClear="true" to="1597" toLane="0"/>
	<connection contPos="-4.0" from="1508" fromLane="0" keepClear="true" to="1522" toLane="0"/>
	<connection contPos="-4.0" from="1511" fromLane="0" keepClear="true" to="1529" toLane="0"/>
	<connection contPos="-4.0" from="1512" fromLane="0" keepClear="true" to="1578" toLane="0"/>
	<connection contPos="-4.0" from="1512" fromLane="0" keepClear="true" to="1526" toLane="0"/>
	<connection contPos="-4.0" from="1513" fromLane="0" keepClear="true" to="1602" toLane="0"/>
	<connection contPos="-4.0" from="1513" fromLane="0" keepClear="true" to="1567" toLane="0"/>
	<connection contPos="-4.0" from="1514" fromLane="0" keepClear="true" to="1614" toLane="0"/>
	<connection contPos="-4.0" from="1514" fromLane="0" keepClear="true" to="1594" toLane="0"/>
	<connection contPos="-4.0" from="1514" fromLane="0" keepClear="true" to="1572" toLane="0"/>
	<connection contPos="-4.0" from="1516" fromLane="1" keepClear="true" to="1549" toLane="1"/>
	<connection contPos="-4.0" from="1516" fromLane="0" keepClear="true" to="1575" toLane="0"/>
	<connection contPos="-4.0" from="1516" fromLane="0" keepClear="true" to="1549" toLane="0"/>
	<connection contPos="-4.0" from="1517" fromLane="0" keepClear="true" to="1626" toLane="0"/>
	<connection contPos="-4.0" from="1517" fromLane="0" keepClear="true" to="1618" toLane="0"/>
	<connection contPos="-4.0" from="1518" fromLane="0" keepClear="true" to="1538" toLane="0"/>
	<connection contPos="-4.0" from="1518" fromLane="0" keepClear="true" to="1613" toLane="0"/>
	<connection contPos="-4.0" from="1519" fromLane="0" keepClear="true" to="1493" toLane="0"/>
	<connection contPos="-4.0" from="1520" fromLane="0" keepClear="true" to="1475" toLane="0"/>
	<connection contPos="-4.0" from="1521" fromLane="0" keepClear="true" to="1465" toLane="0"/>
	<connection contPos="-4.0" from="1522" fromLane="0" keepClear="true" to="1485" toLane="0"/>
	<connection contPos="-4.0" from="1523" fromLane="0" keepClear="true" to="1497" toLane="0"/>
	<connection contPos="-4.0" from="1524" fromLane="0" keepClear="true" to="1451" toLane="0"/>
	<connection contPos="-4.0" from="1525" fromLane="0" keepClear="true" to="1486" toLane="0"/>
	<connection contPos="-4.0" from="1526" fromLane="0" keepClear="true" to="1458" toLane="0"/>
	<connection contPos="-4.0" from="1527" fromLane="0" keepClear="true" to="1481" toLane="0"/>
	<connection contPos="-4.0" from="1528" fromLane="0" keepClear="true" to="1514" toLane="0"/>
	<connection contPos="-4.0" from="1529" fromLane="0" keepClear="true" to="1498" toLane="0"/>
	<connection contPos="-4.0" from="1530" fromLane="0" keepClear="true" to="1478" toLane="0"/>
	<connection contPos="-4.0" from="1531" fromLane="0" keepClear="true" to="1511" toLane="0"/>
	<connection contPos="-4.0" from="1532" fromLane="0" keepClear="true" to="1486" toLane="0"/>
	<connection contPos="-4.0" from="1533" fromLane="0" keepClear="true" to="1510" toLane="0"/>
	<connection contPos="-4.0" from="1534" fromLane="0" keepClear="true" to="1493" toLane="0"/>
	<connection contPos="-4.0" from="1535" fromLane="0" keepClear="true" to="1467" toLane="0"/>
	<connection contPos="-4.0" from="1536" fromLane="0" keepClear="true" to="1474" toLane="0"/>
	<connection contPos="-4.0" from="1537" fromLane="0" keepClear="true" to="1463" toLane="0"/>
	<connection contPos="-4.0" from="1538" fromLane="0" keepClear="true" to="1490" toLane="0"/>
	<connection contPos="-4.0" from="1539" fromLane="0" keepClear="true" to="1450" toLane="0"/>
	<connection contPos="-4.0" from="1540" fromLane="0" keepClear="true" to="1494" toLane="0"/>
	<connection contPos="-4.0" from="1537" fromLane="1" keepClear="true" to="1463" toLane="1"/>
	<connection contPos="-4.0" from="1533" fromLane="1" keepClear="true" to="1510" toLane="1"/>
	<connection contPos="-4.0" from="1543" fromLane="0" keepClear="true" to="1513" toLane="0"/>
	<connection contPos="-4.0" from="1544" fromLane="0" keepClear="true" to="1482" toLane="0"/>
	<connection contPos="-4.0" from="1545" fromLane="0" keepClear="true" to="1482" toLane="0"/>
	<connection contPos="-4.0" from="1546" fromLane="0" keepClear="true" to="1495" toLane="0"/>
	<connection contPos="-4.0" from="1547" fromLane="0" keepClear="true" to="1458" toLane="0"/>
	<connection contPos="-4.0" from="1548" fromLane="0" keepClear="true" to="1514" toLane="0"/>
	<connection contPos="-4.0" from="1549" fromLane="0" keepClear="true" to="1472" toLane="0"/>
	<connection contPos="-4.0" from="1550" fromLane="0" keepClear="true" to="1468" toLane="0"/>
	<connection contPos="-4.0" from="1551" fromLane="0" keepClear="true" to="1513" toLane="0"/>
	<connection contPos="-4.0" from="1552" fromLane="0" keepClear="true" to="1494" toLane="0"/>
	<connection contPos="-4.0" from="1553" fromLane="0" keepClear="true" to="1457" toLane="0"/>
	<connection contPos="-4.0" from="1554" fromLane="0" keepClear="true" to="1505" toLane="0"/>
	<connection contPos="-4.0" from="1555" fromLane="0" keepClear="true" to="1456" toLane="1"/>
	<connection contPos="-4.0" from="1549" fromLane="1" keepClear="true" to="1472" toLane="1"/>
	<connection contPos="-4.0" from="1557" fromLane="0" keepClear="true" to="1513" toLane="0"/>
	<connection contPos="-4.0" from="1558" fromLane="0" keepClear="true" to="1511" toLane="0"/>
	<connection contPos="-4.0" from="1559" fromLane="0" keepClear="true" to="1506" toLane="0"/>
	<connection contPos="-4.0" from="1560" fromLane="0" keepClear="true" to="1502" toLane="0"/>
	<connection contPos="-4.0" from="1561" fromLane="0" keepClear="true" to="1475" toLane="0"/>
	<connection contPos="-4.0" from="1562" fromLane="0" keepClear="true" to="1476" toLane="0"/>
	<connection contPos="-4.0" from="1563" fromLane="0" keepClear="true" to="1464" toLane="0"/>
	<connection contPos="-4.0" from="1564" fromLane="0" keepClear="true" to="1499" toLane="0"/>
	<connection contPos="-4.0" from="1565" fromLane="0" keepClear="true" to="1472" toLane="1"/>
	<connection contPos="-4.0" from="1566" fromLane="0" keepClear="true" to="1510" toLane="0"/>
	<connection contPos="-4.0" from="1567" fromLane="0" keepClear="true" to="1476" toLane="0"/>
	<connection contPos="-4.0" from="1568" fromLane="0" keepClear="true" to="1456" toLane="0"/>
	<connection contPos="-4.0" from="1569" fromLane="0" keepClear="true" to="1496" toLane="0"/>
	<connection contPos="-4.0" from="1568" fromLane="1" keepClear="true" to="1456" toLane="1"/>
	<connection contPos="-4.0" from="1571" fromLane="0" keepClear="true" to="1504" toLane="0"/>
	<connection contPos="-4.0" from="1572" fromLane="0" keepClear="true" to="1467" toLane="0"/>
	<connection contPos="-4.0" from="1573" fromLane="0" keepClear="true" to="1506" toLane="0"/>
	<connection contPos="-4.0" from="1574" fromLane="0" keepClear="true" to="1463" toLane="0"/>
	<connection contPos="-4.0" from="1575" fromLane="0" keepClear="true" to="1464" toLane="0"/>
	<connection contPos="-4.0" from="1576" fromLane="0" keepClear="true" to="1467" toLane="0"/>
	<connection contPos="-4.0" from="1577" fromLane="0" keepClear="true" to="1501" toLane="0"/>
	<connection contPos="-4.0" from="1578" fromLane="0" keepClear="true" to="1502" toLane="0"/>
	<connection contPos="-4.0" from="1579" fromLane="0" keepClear="true" to="1518" toLane="0"/>
	<connection contPos="-4.0" from="1580" fromLane="0" keepClear="true" to="1483" toLane="0"/>
	<connection contPos="-4.0" from="1581" fromLane="0" keepClear="true" to="1487" toLane="0"/>
	<connection contPos="-4.0" from="1582" fromLane="0" keepClear="true" to="1512" toLane="0"/>
	<connection contPos="-4.0" from="1583" fromLane="0" keepClear="true" to="1479" toLane="0"/>
	<connection contPos="-4.0" from="1584" fromLane="0" keepClear="true" to="1507" toLane="0"/>
	<connection contPos="-4.0" from="1585" fromLane="0" keepClear="true" to="1497" toLane="0"/>
	<connection contPos="-4.0" from="1586" fromLane="0" keepClear="true" to="1517" toLane="0"/>
	<connection contPos="-4.0" from="1587" fromLane="0" keepClear="true" to="1492" toLane="0"/>
	<connection contPos="-4.0" from="1588" fromLane="0" keepClear="true" to="1491" toLane="0"/>
	<connection contPos="-4.0" from="1589" fromLane="0" keepClear="true" to="1499" toLane="0"/>
	<connection contPos="-4.0" from="1590" fromLane="0" keepClear="true" to="1484" toLane="0"/>
	<connection contPos="-4.0" from="1591" fromLane="0" keepClear="true" to="1518" toLane="0"/>
	<connection contPos="-4.0" from="1592" fromLane="0" keepClear="true" to="1484" toLane="0"/>
	<connection contPos="-4.0" from="1593" fromLane="0" keepClear="true" to="1489" toLane="0"/>
	<connection contPos="-4.0" from="1594" fromLane="0" keepClear="true" to="1457" toLane="0"/>
	<connection contPos="-4.0" from="1595" fromLane="0" keepClear="true" to="1487" toLane="0"/>
	<connection contPos="-4.0" from="1596" fromLane="0" keepClear="true" to="1474" toLane="0"/>
	<connection contPos="-4.0" from="1597" fromLane="0" keepClear="true" to="1465" toLane="0"/>
	<connection contPos="-4.0" from="1598" fromLane="0" keepClear="true" to="1491" toLane="0"/>
	<connection contPos="-4.0" from="1599" fromLane="0" keepClear="true" to="1490" toLane="0"/>
	<connection contPos="-4.0" from="1600" fromLane="0" keepClear="true" to="1477" toLane="0"/>
	<connection contPos="-4.0" from="1601" fromLane="0" keepClear="true" to="1459" toLane="0"/>
	<connection contPos="-4.0" from="1602" fromLane="0" keepClear="true" to="1451" toLane="0"/>
	<connection contPos="-4.0" from="1603" fromLane="0" keepClear="true" to="1478" toLane="0"/>
	<connection contPos="-4.0" from="1604" fromLane="0" keepClear="true" to="1453" toLane="0"/>
	<connection contPos="-4.0" from="1605" fromLane="0" keepClear="true" to="1473" toLane="0"/>
	<connection contPos="-4.0" from="1606" fromLane="0" keepClear="true" to="1473" toLane="0"/>
	<connection contPos="-4.0" from="1607" fromLane="0" keepClear="true" to="1481" toLane="0"/>
	<connection contPos="-4.0" from="1608" fromLane="0" keepClear="true" to="1488" toLane="0"/>
	<connection contPos="-4.0" from="1609" fromLane="0" keepClear="true" to="1489" toLane="0"/>
	<connection contPos="-4.0" from="1610" fromLane="0" keepClear="true" to="1483" toLane="0"/>
	<connection contPos="-4.0" from="1611" fromLane="0" keepClear="true" to="1479" toLane="0"/>
	<connection contPos="-4.0" from="1612" fromLane="0" keepClear="true" to="1466" toLane="0"/>
	<connection contPos="-4.0" from="1613" fromLane="0" keepClear="true" to="1507" toLane="0"/>
	<connection contPos="-4.0" from="1614" fromLane="0" keepClear="true" to="1505" toLane="0"/>
	<connection contPos="-4.0" from="1615" fromLane="0" keepClear="true" to="1457" toLane="0"/>
	<connection contPos="-4.0" from="1616" fromLane="0" keepClear="true" to="1468" toLane="0"/>
	<connection contPos="-4.0" from="1617" fromLane="0" keepClear="true" to="1461" toLane="0"/>
	<connection contPos="-4.0" from="1618" fromLane="0" keepClear="true" to="1492" toLane="0"/>
	<connection contPos="-4.0" from="1619" fromLane="0" keepClear="true" to="1453" toLane="0"/>
	<connection contPos="-4.0" from="1620" fromLane="0" keepClear="true" to="1504" toLane="0"/>
	<connection contPos="-4.0" from="1621" fromLane="0" keepClear="true" to="1500" toLane="0"/>
	<connection contPos="-4.0" from="1617" fromLane="1" keepClear="true" to="1461" toLane="1"/>
	<connection contPos="-4.0" from="1619" fromLane="1" keepClear="true" to="1453" toLane="1"/>
	<connection contPos="-4.0" from="1624" fromLane="0" keepClear="true" to="1517" toLane="0"/>
	<connection contPos="-4.0" from="1625" fromLane="0" keepClear="true" to="1505" toLane="0"/>
	<connection contPos="-4.0" from="1626" fromLane="0" keepClear="true" to="1501" toLane="0"/>
	<connection contPos="-4.0" from="1627" fromLane="0" keepClear="true" to="1488" toLane="0"/>
	<connection contPos="-4.0" from="1628" fromLane="0" keepClear="true" to="1459" toLane="0"/>
</connections>
