<?xml version="1.0" encoding="UTF-8"?>

<!-- generated on Fri Dec 18 16:22:53 2020 by Eclipse SUMO netconvert Version 1.8.0
<configuration xmlns:xsi="http://www.w3.org/2001/XMLSchema-instance" xsi:noNamespaceSchemaLocation="http://sumo.dlr.de/xsd/netconvertConfiguration.xsd">

    <input>
        <node-files value="./converted_scenarios/SUMO/CHN_Sha-5_2_I-1-1/nodes.net.xml"/>
        <edge-files value="./converted_scenarios/SUMO/CHN_Sha-5_2_I-1-1/edges.net.xml"/>
        <connection-files value="./converted_scenarios/SUMO/CHN_Sha-5_2_I-1-1/_connections.net.xml"/>
        <tllogic-files value="./converted_scenarios/SUMO/CHN_Sha-5_2_I-1-1/_tll.net.xml"/>
    </input>

    <output>
        <output-file value="./converted_scenarios/SUMO/CHN_Sha-5_2_I-1-1/CHN_Sha-5_2_I-1-1.net.xml"/>
    </output>

    <processing>
        <plain.extend-edge-shape value="true"/>
        <geometry.remove.keep-edges.explicit value="true"/>
        <geometry.avoid-overlap value="true"/>
        <offset.disable-normalization value="true"/>
    </processing>

    <junctions>
        <no-turnarounds value="true"/>
        <junctions.internal-link-detail value="20"/>
    </junctions>

    <report>
        <aggregate-warnings value="5"/>
    </report>

    <random_number>
        <seed value="1234"/>
    </random_number>

</configuration>
-->

<net version="1.6" junctionCornerDetail="5" junctionLinkDetail="20" limitTurnSpeed="5.50" xmlns:xsi="http://www.w3.org/2001/XMLSchema-instance" xsi:noNamespaceSchemaLocation="http://sumo.dlr.de/xsd/net_file.xsd">

    <location netOffset="0.00,0.00" convBoundary="-184.53,-339.74,321.80,165.56" origBoundary="-185.05,-340.24,321.80,165.56" projParameter="!"/>

    <edge id=":1_0" function="internal">
        <lane id=":1_0_0" index="0" disallow="bus truck rail_fast" speed="36.11" length="2.96" width="2.50" shape="69.73,-78.76 69.64,-78.56 69.57,-78.37 69.50,-78.21 69.44,-78.05 69.39,-77.91 69.34,-77.79 69.30,-77.66 69.26,-77.55 69.22,-77.43 69.19,-77.32 69.16,-77.21 69.13,-77.09 69.09,-76.96 69.06,-76.83 69.02,-76.69 68.98,-76.53 68.94,-76.35 68.88,-76.16 68.83,-75.94"/>
    </edge>
    <edge id=":100_0" function="internal">
        <lane id=":100_0_0" index="0" disallow="bus truck rail_fast" speed="6.87" length="8.94" width="2.49" shape="-44.36,-22.72 -45.07,-22.94 -45.74,-23.13 -46.39,-23.30 -47.00,-23.44 -47.59,-23.55 -48.14,-23.63 -48.67,-23.69 -49.17,-23.72 -49.63,-23.72 -50.07,-23.70 -50.48,-23.65 -50.86,-23.57 -51.20,-23.46 -51.52,-23.32 -51.81,-23.16 -52.07,-22.97 -52.30,-22.76 -52.50,-22.51 -52.67,-22.24"/>
    </edge>
    <edge id=":100_1" function="internal">
        <lane id=":100_1_0" index="0" disallow="bus truck rail_fast" speed="10.40" length="7.44" width="2.49" shape="-44.36,-22.72 -44.88,-22.87 -45.36,-23.00 -45.81,-23.09 -46.24,-23.17 -46.63,-23.23 -47.00,-23.28 -47.35,-23.32 -47.68,-23.37 -48.00,-23.42 -48.30,-23.49 -48.60,-23.57 -48.88,-23.67 -49.16,-23.81 -49.44,-23.98 -49.72,-24.19 -50.01,-24.45 -50.30,-24.76 -50.60,-25.13 -50.91,-25.56"/>
    </edge>
    <edge id=":101_0" function="internal">
        <lane id=":101_0_0" index="0" disallow="bus truck rail_fast" speed="6.11" length="5.24" width="2.48" shape="-51.03,-25.72 -51.25,-26.06 -51.47,-26.39 -51.66,-26.71 -51.84,-27.03 -52.00,-27.33 -52.14,-27.62 -52.26,-27.90 -52.37,-28.17 -52.46,-28.44 -52.54,-28.69 -52.59,-28.93 -52.63,-29.17 -52.65,-29.39 -52.66,-29.61 -52.64,-29.81 -52.61,-30.01 -52.57,-30.20 -52.50,-30.37 -52.42,-30.54"/>
    </edge>
    <edge id=":101_1" function="internal">
        <lane id=":101_1_0" index="0" disallow="bus truck rail_fast" speed="36.11" length="4.05" width="2.48" shape="-53.78,-26.74 -53.68,-27.03 -53.59,-27.29 -53.51,-27.52 -53.45,-27.74 -53.40,-27.93 -53.35,-28.12 -53.31,-28.29 -53.27,-28.45 -53.23,-28.61 -53.19,-28.77 -53.14,-28.92 -53.09,-29.08 -53.03,-29.25 -52.97,-29.42 -52.89,-29.61 -52.80,-29.81 -52.69,-30.03 -52.56,-30.27 -52.42,-30.54"/>
    </edge>
    <edge id=":102_0" function="internal">
        <lane id=":102_0_0" index="0" disallow="bus truck rail_fast" speed="5.58" length="7.18" width="2.48" shape="-52.32,-30.71 -52.22,-30.92 -52.17,-31.13 -52.15,-31.34 -52.17,-31.56 -52.23,-31.78 -52.33,-32.00 -52.46,-32.23 -52.64,-32.45 -52.85,-32.68 -53.11,-32.92 -53.40,-33.15 -53.73,-33.39 -54.10,-33.63 -54.51,-33.88 -54.96,-34.13 -55.44,-34.38 -55.97,-34.63 -56.53,-34.89 -57.14,-35.15"/>
    </edge>
    <edge id=":102_1" function="internal">
        <lane id=":102_1_0" index="0" disallow="bus truck rail_fast" speed="36.11" length="4.72" width="2.48" shape="-52.32,-30.71 -52.15,-31.02 -52.00,-31.30 -51.88,-31.56 -51.77,-31.79 -51.67,-32.01 -51.59,-32.21 -51.52,-32.40 -51.46,-32.59 -51.41,-32.77 -51.36,-32.95 -51.31,-33.13 -51.26,-33.32 -51.20,-33.52 -51.15,-33.74 -51.08,-33.97 -51.00,-34.22 -50.92,-34.49 -50.81,-34.79 -50.70,-35.12"/>
    </edge>
    <edge id=":103_0" function="internal">
        <lane id=":103_0_0" index="0" disallow="bus truck rail_fast" speed="36.11" length="4.11" width="2.49" shape="-48.40,-34.13 -48.50,-33.84 -48.59,-33.57 -48.67,-33.34 -48.74,-33.12 -48.80,-32.92 -48.86,-32.74 -48.91,-32.56 -48.96,-32.40 -49.00,-32.24 -49.05,-32.09 -49.10,-31.93 -49.15,-31.77 -49.21,-31.60 -49.28,-31.42 -49.36,-31.23 -49.45,-31.02 -49.55,-30.79 -49.67,-30.54 -49.80,-30.26"/>
    </edge>
    <edge id=":103_1" function="internal">
        <lane id=":103_1_0" index="0" disallow="bus truck rail_fast" speed="6.11" length="5.04" width="2.49" shape="-51.30,-34.85 -51.08,-34.53 -50.87,-34.22 -50.67,-33.92 -50.49,-33.62 -50.33,-33.33 -50.19,-33.06 -50.06,-32.79 -49.95,-32.53 -49.85,-32.28 -49.77,-32.04 -49.71,-31.80 -49.66,-31.58 -49.63,-31.37 -49.62,-31.16 -49.62,-30.96 -49.64,-30.77 -49.68,-30.59 -49.73,-30.42 -49.80,-30.26"/>
    </edge>
    <edge id=":104_0" function="internal">
        <lane id=":104_0_0" index="0" disallow="bus truck rail_fast" speed="5.44" length="6.77" width="2.49" shape="-49.89,-30.08 -49.99,-29.83 -50.06,-29.59 -50.09,-29.34 -50.08,-29.10 -50.04,-28.86 -49.97,-28.63 -49.85,-28.40 -49.70,-28.16 -49.52,-27.94 -49.30,-27.71 -49.04,-27.49 -48.74,-27.27 -48.41,-27.05 -48.05,-26.83 -47.65,-26.62 -47.21,-26.41 -46.73,-26.20 -46.22,-26.00 -45.67,-25.80"/>
    </edge>
    <edge id=":104_1" function="internal">
        <lane id=":104_1_0" index="0" disallow="bus truck rail_fast" speed="36.11" length="4.43" width="2.49" shape="-49.89,-30.08 -50.03,-29.78 -50.16,-29.51 -50.27,-29.27 -50.36,-29.04 -50.45,-28.84 -50.52,-28.65 -50.59,-28.47 -50.64,-28.29 -50.70,-28.12 -50.75,-27.96 -50.80,-27.79 -50.86,-27.61 -50.91,-27.43 -50.97,-27.23 -51.04,-27.02 -51.11,-26.78 -51.20,-26.53 -51.30,-26.24 -51.41,-25.93"/>
    </edge>
    <edge id=":106_0" function="internal">
        <lane id=":106_0_0" index="0" disallow="bus truck rail_fast" speed="6.62" length="9.65" width="2.50" shape="-72.99,4.36 -72.34,4.64 -71.71,4.88 -71.10,5.07 -70.52,5.23 -69.96,5.35 -69.43,5.42 -68.92,5.45 -68.43,5.45 -67.97,5.40 -67.53,5.31 -67.12,5.19 -66.73,5.02 -66.36,4.81 -66.02,4.56 -65.71,4.27 -65.41,3.94 -65.14,3.57 -64.90,3.16 -64.68,2.70"/>
    </edge>
    <edge id=":106_1" function="internal">
        <lane id=":106_1_0" index="0" disallow="bus truck rail_fast" speed="36.11" length="8.42" width="2.50" shape="-72.99,4.36 -65.26,7.70"/>
    </edge>
    <edge id=":107_0" function="internal">
        <lane id=":107_0_0" index="0" disallow="bus truck rail_fast" speed="36.11" length="6.74" width="2.50" shape="-105.73,-138.32 -106.07,-137.95 -106.37,-137.61 -106.65,-137.31 -106.90,-137.03 -107.13,-136.78 -107.34,-136.55 -107.54,-136.33 -107.72,-136.12 -107.90,-135.91 -108.07,-135.71 -108.24,-135.50 -108.40,-135.27 -108.57,-135.04 -108.75,-134.78 -108.94,-134.50 -109.14,-134.18 -109.36,-133.84 -109.59,-133.45 -109.85,-133.02"/>
    </edge>
    <edge id=":107_1" function="internal">
        <lane id=":107_1_0" index="0" disallow="bus truck rail_fast" speed="36.11" length="9.07" width="2.50" shape="-105.36,-140.96 -109.85,-133.02"/>
        <lane id=":107_1_1" index="1" disallow="bus truck rail_fast" speed="36.11" length="9.07" width="2.50" shape="-107.57,-142.15 -112.00,-134.30"/>
    </edge>
    <edge id=":109_0" function="internal">
        <lane id=":109_0_0" index="0" disallow="bus truck rail_fast" speed="12.95" length="6.94" width="2.50" shape="4.59,-43.38 4.97,-43.72 5.31,-44.04 5.62,-44.32 5.90,-44.59 6.14,-44.84 6.37,-45.07 6.57,-45.30 6.75,-45.53 6.91,-45.75 7.06,-45.98 7.20,-46.23 7.34,-46.48 7.47,-46.76 7.60,-47.06 7.74,-47.38 7.87,-47.74 8.02,-48.13 8.18,-48.57 8.36,-49.05"/>
    </edge>
    <edge id=":109_1" function="internal">
        <lane id=":109_1_0" index="0" disallow="rail_fast" speed="36.11" length="8.79" width="2.50" shape="5.36,-40.79 8.36,-49.05"/>
    </edge>
    <edge id=":11_0" function="internal">
        <lane id=":11_0_0" index="0" disallow="bus truck rail_fast" speed="14.23" length="8.52" width="2.50" shape="-2.69,-12.18 -2.78,-12.80 -2.87,-13.36 -2.94,-13.88 -3.00,-14.34 -3.04,-14.77 -3.07,-15.17 -3.09,-15.54 -3.09,-15.90 -3.07,-16.24 -3.03,-16.58 -2.98,-16.92 -2.91,-17.27 -2.83,-17.63 -2.72,-18.02 -2.59,-18.43 -2.45,-18.88 -2.28,-19.37 -2.10,-19.91 -1.89,-20.50"/>
    </edge>
    <edge id=":11_1" function="internal">
        <lane id=":11_1_0" index="0" disallow="bus truck rail_fast" speed="31.38" length="6.49" width="2.50" shape="-4.97,-14.84 -4.68,-15.23 -4.42,-15.58 -4.19,-15.90 -3.98,-16.19 -3.79,-16.46 -3.61,-16.70 -3.46,-16.94 -3.31,-17.17 -3.18,-17.39 -3.05,-17.61 -2.93,-17.85 -2.81,-18.09 -2.70,-18.34 -2.58,-18.62 -2.46,-18.93 -2.33,-19.26 -2.20,-19.63 -2.05,-20.04 -1.89,-20.50"/>
    </edge>
    <edge id=":11_2" function="internal">
        <lane id=":11_2_0" index="0" disallow="rail_fast" speed="36.11" length="9.06" width="2.50" shape="-4.93,-11.97 -1.89,-20.50"/>
    </edge>
    <edge id=":110_0" function="internal">
        <lane id=":110_0_0" index="0" disallow="bus truck rail_fast" speed="36.11" length="0.10" width="2.50" shape="10.97,-56.26 10.97,-56.26"/>
    </edge>
    <edge id=":111_0" function="internal">
        <lane id=":111_0_0" index="0" disallow="bus truck rail_fast" speed="36.11" length="3.21" width="2.50" shape="13.77,-56.98 13.73,-56.74 13.69,-56.53 13.65,-56.34 13.61,-56.17 13.57,-56.01 13.53,-55.87 13.49,-55.74 13.45,-55.61 13.40,-55.49 13.36,-55.37 13.31,-55.25 13.26,-55.13 13.21,-55.00 13.15,-54.86 13.09,-54.71 13.02,-54.55 12.95,-54.36 12.87,-54.16 12.79,-53.94"/>
    </edge>
    <edge id=":112_0" function="internal">
        <lane id=":112_0_0" index="0" disallow="rail_fast" speed="36.11" length="8.69" width="2.50" shape="10.70,-48.17 7.73,-40.01"/>
    </edge>
    <edge id=":112_1" function="internal">
        <lane id=":112_1_0" index="0" disallow="bus truck rail_fast" speed="8.43" length="9.69" width="2.50" shape="10.70,-48.17 10.44,-47.49 10.18,-46.85 9.91,-46.24 9.64,-45.66 9.36,-45.12 9.08,-44.61 8.79,-44.13 8.49,-43.68 8.19,-43.27 7.88,-42.89 7.57,-42.55 7.24,-42.24 6.92,-41.96 6.59,-41.71 6.25,-41.50 5.90,-41.32 5.55,-41.17 5.20,-41.06 4.83,-40.98"/>
    </edge>
    <edge id=":113_0" function="internal">
        <lane id=":113_0_0" index="0" disallow="bus truck rail_fast" speed="36.11" length="6.90" width="2.50" shape="-0.18,-12.22 0.19,-11.87 0.54,-11.55 0.85,-11.27 1.13,-11.01 1.39,-10.78 1.63,-10.56 1.85,-10.36 2.07,-10.18 2.29,-10.01 2.50,-9.84 2.73,-9.68 2.96,-9.52 3.21,-9.35 3.48,-9.18 3.78,-9.00 4.11,-8.81 4.48,-8.60 4.88,-8.37 5.33,-8.12"/>
    </edge>
    <edge id=":113_1" function="internal">
        <lane id=":113_1_0" index="0" disallow="bus truck rail_fast" speed="36.11" length="9.37" width="2.50" shape="-3.05,-12.31 5.33,-8.12"/>
    </edge>
    <edge id=":113_2" function="internal">
        <lane id=":113_2_0" index="0" disallow="bus truck rail_fast" speed="13.09" length="8.72" width="2.50" shape="-2.91,-10.31 -2.27,-10.33 -1.69,-10.35 -1.16,-10.35 -0.68,-10.35 -0.24,-10.33 0.16,-10.29 0.54,-10.25 0.90,-10.18 1.24,-10.10 1.58,-10.01 1.91,-9.89 2.25,-9.75 2.60,-9.59 2.97,-9.41 3.37,-9.20 3.79,-8.97 4.26,-8.72 4.77,-8.43 5.33,-8.12"/>
    </edge>
    <edge id=":114_0" function="internal">
        <lane id=":114_0_0" index="0" disallow="bus truck rail_fast" speed="6.13" length="7.07" width="2.50" shape="33.51,7.41 33.68,7.50 33.91,7.63 34.20,7.78 34.53,7.96 34.90,8.16 35.30,8.36 35.72,8.58 36.16,8.79 36.61,9.01 37.06,9.21 37.51,9.40 37.94,9.58 38.35,9.73 38.74,9.85 39.08,9.94 39.39,9.99 39.65,10.00 39.84,9.96 39.98,9.86"/>
    </edge>
    <edge id=":114_1" function="internal">
        <lane id=":114_1_0" index="0" disallow="bus truck rail_fast" speed="10.53" length="8.35" width="2.50" shape="33.51,7.41 34.05,7.69 34.55,7.94 35.02,8.15 35.46,8.34 35.87,8.51 36.26,8.66 36.62,8.81 36.96,8.96 37.28,9.11 37.59,9.28 37.88,9.46 38.15,9.67 38.41,9.90 38.66,10.18 38.91,10.49 39.14,10.86 39.38,11.28 39.61,11.77 39.84,12.32"/>
    </edge>
    <edge id=":115_0" function="internal">
        <lane id=":115_0_0" index="0" disallow="bus truck rail_fast" speed="36.11" length="6.14" width="2.50" shape="37.61,13.33 37.26,13.02 36.95,12.75 36.67,12.50 36.42,12.28 36.18,12.08 35.96,11.89 35.76,11.72 35.56,11.57 35.36,11.42 35.17,11.28 34.96,11.14 34.75,11.00 34.53,10.86 34.28,10.71 34.01,10.55 33.72,10.38 33.39,10.20 33.03,10.00 32.63,9.78"/>
    </edge>
    <edge id=":115_1" function="internal">
        <lane id=":115_1_0" index="0" disallow="bus truck rail_fast" speed="21.43" length="7.27" width="2.50" shape="39.43,12.13 38.90,12.05 38.42,11.97 37.98,11.90 37.59,11.83 37.23,11.76 36.89,11.69 36.59,11.61 36.30,11.53 36.02,11.45 35.74,11.35 35.47,11.24 35.20,11.13 34.91,10.99 34.60,10.84 34.28,10.67 33.92,10.48 33.53,10.27 33.11,10.04 32.63,9.78"/>
    </edge>
    <edge id=":116_0" function="internal">
        <lane id=":116_0_0" index="0" disallow="bus truck rail_fast" speed="6.14" length="8.01" width="2.50" shape="4.39,-5.79 3.72,-6.15 3.08,-6.49 2.47,-6.80 1.89,-7.09 1.35,-7.34 0.83,-7.57 0.35,-7.77 -0.10,-7.94 -0.51,-8.09 -0.90,-8.20 -1.25,-8.29 -1.58,-8.36 -1.87,-8.39 -2.13,-8.40 -2.35,-8.38 -2.55,-8.33 -2.71,-8.25 -2.84,-8.15 -2.94,-8.02"/>
    </edge>
    <edge id=":116_1" function="internal">
        <lane id=":116_1_0" index="0" disallow="bus truck rail_fast" speed="36.11" length="11.12" width="2.50" shape="4.39,-5.79 3.73,-6.15 3.11,-6.49 2.54,-6.80 2.01,-7.09 1.51,-7.36 1.03,-7.61 0.58,-7.85 0.13,-8.07 -0.30,-8.29 -0.74,-8.50 -1.18,-8.71 -1.63,-8.91 -2.10,-9.12 -2.60,-9.33 -3.12,-9.55 -3.68,-9.78 -4.28,-10.03 -4.93,-10.29 -5.64,-10.57"/>
    </edge>
    <edge id=":116_2" function="internal">
        <lane id=":116_2_0" index="0" disallow="bus truck rail_fast" speed="9.22" length="9.61" width="2.50" shape="4.39,-5.79 3.71,-6.17 3.06,-6.55 2.45,-6.92 1.87,-7.28 1.33,-7.64 0.82,-7.99 0.34,-8.33 -0.10,-8.67 -0.50,-9.00 -0.87,-9.33 -1.21,-9.65 -1.51,-9.96 -1.78,-10.27 -2.01,-10.57 -2.21,-10.87 -2.37,-11.16 -2.50,-11.44 -2.59,-11.71 -2.65,-11.98"/>
    </edge>
    <edge id=":118_0" function="internal">
        <lane id=":118_0_0" index="0" disallow="bus truck rail_fast" speed="6.51" length="10.53" width="2.50" shape="-34.65,-295.78 -34.98,-294.97 -35.28,-294.19 -35.53,-293.44 -35.73,-292.74 -35.89,-292.08 -36.01,-291.45 -36.08,-290.86 -36.11,-290.31 -36.09,-289.80 -36.03,-289.32 -35.93,-288.89 -35.78,-288.49 -35.59,-288.13 -35.35,-287.81 -35.07,-287.52 -34.74,-287.28 -34.37,-287.07 -33.96,-286.90 -33.50,-286.77"/>
    </edge>
    <edge id=":118_1" function="internal">
        <lane id=":118_1_0" index="0" disallow="rail_fast" speed="36.11" length="9.35" width="2.50" shape="-34.65,-295.78 -38.34,-287.20"/>
        <lane id=":118_1_1" index="1" disallow="rail_fast" speed="36.11" length="9.35" width="2.50" shape="-36.94,-296.77 -40.64,-288.18"/>
    </edge>
    <edge id=":119_0" function="internal">
        <lane id=":119_0_0" index="0" disallow="bus truck rail_fast" speed="27.97" length="6.73" width="2.50" shape="-51.16,-36.91 -50.86,-37.31 -50.58,-37.66 -50.33,-37.99 -50.10,-38.29 -49.90,-38.56 -49.72,-38.82 -49.55,-39.06 -49.40,-39.29 -49.26,-39.52 -49.13,-39.75 -49.00,-39.99 -48.88,-40.24 -48.76,-40.51 -48.63,-40.80 -48.50,-41.11 -48.37,-41.46 -48.22,-41.84 -48.07,-42.27 -47.89,-42.74"/>
    </edge>
    <edge id=":119_1" function="internal">
        <lane id=":119_1_0" index="0" disallow="rail_fast" speed="36.11" length="7.91" width="2.50" shape="-50.63,-35.31 -47.89,-42.74"/>
    </edge>
    <edge id=":12_0" function="internal">
        <lane id=":12_0_0" index="0" disallow="bus truck rail_fast" speed="6.19" length="7.88" width="2.50" shape="2.19,-32.05 2.43,-32.74 2.65,-33.40 2.84,-34.02 3.01,-34.62 3.16,-35.17 3.29,-35.70 3.39,-36.19 3.47,-36.65 3.53,-37.07 3.57,-37.46 3.58,-37.82 3.57,-38.15 3.54,-38.44 3.49,-38.70 3.41,-38.93 3.31,-39.12 3.19,-39.28 3.04,-39.40 2.88,-39.50"/>
    </edge>
    <edge id=":12_1" function="internal">
        <lane id=":12_1_0" index="0" disallow="rail_fast" speed="36.11" length="9.10" width="2.50" shape="2.19,-32.05 5.29,-40.61"/>
    </edge>
    <edge id=":120_0" function="internal">
        <lane id=":120_0_0" index="0" disallow="bus truck rail_fast" speed="6.40" length="6.71" width="2.50" shape="-47.32,-44.29 -47.26,-44.47 -47.17,-44.71 -47.07,-45.00 -46.95,-45.33 -46.82,-45.70 -46.69,-46.10 -46.55,-46.52 -46.41,-46.96 -46.28,-47.40 -46.15,-47.85 -46.04,-48.29 -45.94,-48.72 -45.85,-49.12 -45.79,-49.50 -45.76,-49.85 -45.75,-50.15 -45.78,-50.40 -45.84,-50.60 -45.94,-50.73"/>
    </edge>
    <edge id=":120_1" function="internal">
        <lane id=":120_1_0" index="0" disallow="bus truck rail_fast" speed="10.09" length="7.75" width="2.50" shape="-47.32,-44.29 -47.14,-44.82 -46.98,-45.32 -46.84,-45.78 -46.72,-46.20 -46.61,-46.60 -46.51,-46.97 -46.41,-47.31 -46.31,-47.64 -46.20,-47.95 -46.08,-48.24 -45.94,-48.52 -45.77,-48.79 -45.57,-49.06 -45.35,-49.32 -45.08,-49.58 -44.76,-49.85 -44.40,-50.11 -43.98,-50.39 -43.51,-50.68"/>
    </edge>
    <edge id=":121_0" function="internal">
        <lane id=":121_0_0" index="0" disallow="bus truck rail_fast" speed="36.11" length="5.77" width="2.50" shape="-42.43,-48.77 -42.65,-48.40 -42.84,-48.06 -43.01,-47.75 -43.17,-47.47 -43.31,-47.22 -43.44,-46.99 -43.56,-46.77 -43.68,-46.55 -43.78,-46.35 -43.88,-46.15 -43.98,-45.94 -44.08,-45.72 -44.18,-45.49 -44.29,-45.24 -44.40,-44.97 -44.51,-44.68 -44.64,-44.35 -44.77,-43.99 -44.92,-43.58"/>
    </edge>
    <edge id=":121_1" function="internal">
        <lane id=":121_1_0" index="0" disallow="bus truck rail_fast" speed="12.18" length="7.21" width="2.50" shape="-43.82,-50.54 -43.73,-50.02 -43.66,-49.55 -43.60,-49.12 -43.57,-48.73 -43.55,-48.37 -43.55,-48.04 -43.56,-47.73 -43.60,-47.43 -43.65,-47.14 -43.71,-46.86 -43.79,-46.58 -43.88,-46.29 -43.99,-45.98 -44.12,-45.66 -44.25,-45.31 -44.40,-44.94 -44.56,-44.53 -44.74,-44.08 -44.92,-43.58"/>
    </edge>
    <edge id=":122_0" function="internal">
        <lane id=":122_0_0" index="0" disallow="rail_fast" speed="36.11" length="8.08" width="2.49" shape="-45.54,-41.89 -48.33,-34.31"/>
    </edge>
    <edge id=":122_1" function="internal">
        <lane id=":122_1_0" index="0" disallow="bus truck rail_fast" speed="7.71" length="10.00" width="2.50" shape="-45.54,-41.89 -45.84,-41.11 -46.14,-40.36 -46.43,-39.66 -46.73,-39.00 -47.03,-38.39 -47.33,-37.82 -47.63,-37.29 -47.93,-36.80 -48.23,-36.36 -48.53,-35.96 -48.84,-35.60 -49.14,-35.29 -49.44,-35.01 -49.75,-34.79 -50.05,-34.60 -50.36,-34.46 -50.66,-34.36 -50.97,-34.30 -51.28,-34.29"/>
    </edge>
    <edge id=":13_0" function="internal">
        <lane id=":13_0_0" index="0" disallow="rail_fast" speed="36.11" length="9.14" width="2.50" shape="7.66,-39.82 4.55,-31.23"/>
    </edge>
    <edge id=":13_1" function="internal">
        <lane id=":13_1_0" index="0" disallow="bus truck rail_fast" speed="9.95" length="9.67" width="2.50" shape="4.77,-40.63 4.95,-40.24 5.11,-39.85 5.25,-39.44 5.37,-39.02 5.47,-38.59 5.54,-38.15 5.60,-37.69 5.63,-37.22 5.64,-36.74 5.63,-36.24 5.60,-35.74 5.54,-35.22 5.46,-34.68 5.37,-34.14 5.25,-33.58 5.11,-33.01 4.94,-32.43 4.76,-31.83 4.55,-31.23"/>
    </edge>
    <edge id=":14_0" function="internal">
        <lane id=":14_0_0" index="0" disallow="bus truck rail_fast" speed="7.03" length="7.59" width="2.50" shape="0.46,-19.64 0.25,-19.02 0.05,-18.42 -0.13,-17.85 -0.29,-17.30 -0.42,-16.79 -0.54,-16.30 -0.64,-15.83 -0.72,-15.40 -0.78,-14.98 -0.83,-14.60 -0.85,-14.24 -0.85,-13.91 -0.84,-13.61 -0.80,-13.33 -0.75,-13.08 -0.67,-12.86 -0.58,-12.66 -0.46,-12.49 -0.33,-12.35"/>
    </edge>
    <edge id=":14_1" function="internal">
        <lane id=":14_1_0" index="0" disallow="rail_fast" speed="36.11" length="8.82" width="2.50" shape="0.46,-19.64 -2.51,-11.34"/>
    </edge>
    <edge id=":14_2" function="internal">
        <lane id=":14_2_0" index="0" disallow="bus truck rail_fast" speed="8.24" length="9.46" width="2.50" shape="0.46,-19.64 0.21,-18.95 -0.05,-18.28 -0.31,-17.65 -0.58,-17.06 -0.85,-16.50 -1.12,-15.98 -1.39,-15.49 -1.67,-15.04 -1.95,-14.62 -2.24,-14.24 -2.53,-13.89 -2.82,-13.57 -3.12,-13.30 -3.42,-13.05 -3.72,-12.84 -4.03,-12.67 -4.34,-12.53 -4.65,-12.42 -4.97,-12.35"/>
    </edge>
    <edge id=":15_0" function="internal">
        <lane id=":15_0_0" index="0" disallow="bus truck rail_fast" speed="6.76" length="9.28" width="2.50" shape="33.52,40.95 33.41,41.42 33.35,41.88 33.33,42.32 33.34,42.75 33.40,43.17 33.50,43.58 33.63,43.97 33.81,44.35 34.02,44.72 34.28,45.08 34.57,45.42 34.91,45.75 35.28,46.07 35.70,46.37 36.15,46.66 36.65,46.94 37.18,47.21 37.76,47.46 38.37,47.70"/>
    </edge>
    <edge id=":15_1" function="internal">
        <lane id=":15_1_0" index="0" disallow="bus truck rail_fast" speed="36.11" length="7.17" width="2.50" shape="31.66,45.18 38.37,47.70"/>
    </edge>
    <edge id=":17_0" function="internal">
        <lane id=":17_0_0" index="0" disallow="rail_fast" speed="36.11" length="3.00" width="2.50" shape="-10.21,-109.40 -13.07,-110.31"/>
        <lane id=":17_0_1" index="1" disallow="rail_fast" speed="36.11" length="3.00" width="2.50" shape="-9.45,-111.78 -12.31,-112.70"/>
    </edge>
    <edge id=":18_0" function="internal">
        <lane id=":18_0_0" index="0" disallow="bus truck rail_fast" speed="7.33" length="10.09" width="2.50" shape="-63.51,-126.43 -64.22,-126.64 -64.90,-126.82 -65.56,-126.97 -66.19,-127.08 -66.79,-127.16 -67.37,-127.20 -67.93,-127.21 -68.46,-127.18 -68.96,-127.12 -69.44,-127.03 -69.89,-126.90 -70.32,-126.74 -70.72,-126.54 -71.10,-126.31 -71.45,-126.05 -71.77,-125.75 -72.07,-125.42 -72.35,-125.05 -72.59,-124.65"/>
    </edge>
    <edge id=":18_1" function="internal">
        <lane id=":18_1_0" index="0" disallow="rail_fast" speed="36.11" length="9.22" width="2.50" shape="-63.51,-126.43 -72.30,-129.24"/>
        <lane id=":18_1_1" index="1" disallow="rail_fast" speed="36.11" length="9.22" width="2.50" shape="-62.76,-128.81 -71.54,-131.62"/>
    </edge>
    <edge id=":19_0" function="internal">
        <lane id=":19_0_0" index="0" disallow="bus truck rail_fast" speed="7.54" length="9.78" width="2.50" shape="67.14,-80.03 67.13,-80.52 67.08,-81.00 67.00,-81.46 66.88,-81.91 66.73,-82.34 66.55,-82.75 66.33,-83.15 66.08,-83.54 65.79,-83.91 65.47,-84.26 65.11,-84.59 64.73,-84.92 64.30,-85.22 63.85,-85.51 63.36,-85.79 62.83,-86.05 62.27,-86.29 61.68,-86.52 61.05,-86.73"/>
    </edge>
    <edge id=":19_1" function="internal">
        <lane id=":19_1_0" index="0" disallow="rail_fast" speed="36.11" length="9.07" width="2.50" shape="69.72,-84.02 61.05,-86.73"/>
        <lane id=":19_1_1" index="1" disallow="rail_fast" speed="36.11" length="9.07" width="2.50" shape="70.46,-86.40 61.82,-89.11"/>
    </edge>
    <edge id=":2_0" function="internal">
        <lane id=":2_0_0" index="0" disallow="bus truck rail_fast" speed="36.11" length="9.62" width="2.50" shape="45.92,4.31 42.73,13.39"/>
    </edge>
    <edge id=":2_1" function="internal">
        <lane id=":2_1_0" index="0" disallow="bus truck rail_fast" speed="7.47" length="10.74" width="2.50" shape="45.92,4.31 45.61,5.17 45.30,5.98 44.99,6.74 44.67,7.44 44.35,8.10 44.03,8.71 43.71,9.28 43.38,9.79 43.05,10.25 42.72,10.66 42.39,11.03 42.05,11.34 41.71,11.61 41.37,11.82 41.03,11.99 40.68,12.11 40.33,12.17 39.98,12.19 39.63,12.16"/>
    </edge>
    <edge id=":20_0" function="internal">
        <lane id=":20_0_0" index="0" disallow="rail_fast" speed="36.11" length="3.00" width="2.50" shape="-0.44,-106.29 -3.30,-107.20"/>
        <lane id=":20_0_1" index="1" disallow="rail_fast" speed="36.11" length="3.00" width="2.50" shape="0.32,-108.67 -2.54,-109.58"/>
    </edge>
    <edge id=":21_0" function="internal">
        <lane id=":21_0_0" index="0" disallow="bus truck rail_fast" speed="36.11" length="2.07" width="2.50" shape="-32.35,-286.50 -30.31,-286.19"/>
    </edge>
    <edge id=":21_1" function="internal">
        <lane id=":21_1_0" index="0" disallow="bus truck rail_fast" speed="36.11" length="8.90" width="2.50" shape="-39.15,-287.04 -38.48,-287.05 -37.88,-287.05 -37.34,-287.05 -36.85,-287.05 -36.40,-287.04 -35.99,-287.02 -35.60,-286.99 -35.24,-286.96 -34.88,-286.92 -34.53,-286.88 -34.18,-286.83 -33.82,-286.77 -33.43,-286.71 -33.02,-286.64 -32.58,-286.56 -32.09,-286.48 -31.56,-286.39 -30.97,-286.29 -30.31,-286.19"/>
    </edge>
    <edge id=":23_0" function="internal">
        <lane id=":23_0_0" index="0" disallow="bus truck rail_fast" speed="6.80" length="9.44" width="2.50" shape="-62.12,3.76 -62.24,4.26 -62.33,4.74 -62.37,5.21 -62.37,5.66 -62.33,6.10 -62.25,6.53 -62.14,6.94 -61.98,7.34 -61.78,7.73 -61.54,8.10 -61.26,8.46 -60.94,8.81 -60.58,9.14 -60.17,9.46 -59.73,9.77 -59.25,10.06 -58.73,10.34 -58.17,10.60 -57.56,10.86"/>
    </edge>
    <edge id=":23_1" function="internal">
        <lane id=":23_1_0" index="0" disallow="bus truck rail_fast" speed="36.11" length="8.12" width="2.50" shape="-65.08,7.77 -57.56,10.86"/>
    </edge>
    <edge id=":24_0" function="internal">
        <lane id=":24_0_0" index="0" disallow="bus truck rail_fast" speed="6.70" length="9.52" width="2.50" shape="-25.66,23.41 -25.00,23.66 -24.37,23.86 -23.77,24.03 -23.18,24.16 -22.63,24.26 -22.09,24.31 -21.59,24.33 -21.10,24.31 -20.64,24.26 -20.21,24.16 -19.80,24.03 -19.41,23.86 -19.05,23.66 -18.71,23.41 -18.40,23.13 -18.11,22.81 -17.85,22.45 -17.61,22.06 -17.39,21.63"/>
    </edge>
    <edge id=":24_1" function="internal">
        <lane id=":24_1_0" index="0" disallow="rail_fast" speed="36.11" length="8.35" width="2.50" shape="-25.66,23.41 -17.87,26.43"/>
    </edge>
    <edge id=":25_0" function="internal">
        <lane id=":25_0_0" index="0" disallow="bus truck rail_fast" speed="36.11" length="2.78" width="2.50" shape="-17.22,21.24 -16.17,18.66"/>
    </edge>
    <edge id=":26_0" function="internal">
        <lane id=":26_0_0" index="0" disallow="bus truck rail_fast" speed="6.20" length="7.74" width="2.50" shape="-8.12,-3.13 -7.87,-3.82 -7.63,-4.49 -7.42,-5.12 -7.23,-5.71 -7.05,-6.27 -6.90,-6.80 -6.77,-7.29 -6.66,-7.75 -6.57,-8.17 -6.50,-8.56 -6.45,-8.91 -6.43,-9.23 -6.42,-9.51 -6.43,-9.76 -6.47,-9.98 -6.52,-10.16 -6.59,-10.30 -6.69,-10.42 -6.80,-10.49"/>
    </edge>
    <edge id=":26_1" function="internal">
        <lane id=":26_1_0" index="0" disallow="rail_fast" speed="36.11" length="9.20" width="2.50" shape="-8.12,-3.13 -5.00,-11.78"/>
    </edge>
    <edge id=":26_2" function="internal">
        <lane id=":26_2_0" index="0" disallow="bus truck rail_fast" speed="7.64" length="9.10" width="2.50" shape="-8.12,-3.13 -7.85,-3.85 -7.57,-4.54 -7.30,-5.18 -7.03,-5.79 -6.76,-6.36 -6.49,-6.89 -6.22,-7.39 -5.96,-7.84 -5.69,-8.26 -5.43,-8.64 -5.17,-8.97 -4.91,-9.27 -4.65,-9.54 -4.39,-9.76 -4.13,-9.94 -3.87,-10.09 -3.62,-10.20 -3.36,-10.27 -3.11,-10.30"/>
    </edge>
    <edge id=":27_0" function="internal">
        <lane id=":27_0_0" index="0" disallow="bus truck rail_fast" speed="36.11" length="6.41" width="2.50" shape="-3.05,-7.85 -3.29,-7.43 -3.51,-7.06 -3.70,-6.72 -3.88,-6.42 -4.04,-6.14 -4.19,-5.88 -4.33,-5.63 -4.45,-5.40 -4.57,-5.17 -4.69,-4.94 -4.80,-4.71 -4.91,-4.47 -5.02,-4.21 -5.13,-3.94 -5.25,-3.64 -5.38,-3.31 -5.52,-2.94 -5.67,-2.54 -5.84,-2.09"/>
    </edge>
    <edge id=":27_1" function="internal">
        <lane id=":27_1_0" index="0" disallow="rail_fast" speed="36.11" length="9.63" width="2.50" shape="-2.57,-11.15 -5.84,-2.09"/>
    </edge>
    <edge id=":27_2" function="internal">
        <lane id=":27_2_0" index="0" disallow="bus truck rail_fast" speed="28.36" length="8.63" width="2.50" shape="-4.27,-10.51 -4.29,-9.87 -4.31,-9.29 -4.33,-8.76 -4.35,-8.28 -4.37,-7.85 -4.40,-7.44 -4.43,-7.07 -4.47,-6.71 -4.52,-6.37 -4.58,-6.03 -4.65,-5.69 -4.74,-5.35 -4.84,-4.98 -4.96,-4.60 -5.09,-4.18 -5.24,-3.73 -5.42,-3.24 -5.62,-2.69 -5.84,-2.09"/>
    </edge>
    <edge id=":28_0" function="internal">
        <lane id=":28_0_0" index="0" disallow="bus truck rail_fast" speed="36.11" length="2.81" width="2.50" shape="-13.82,19.52 -14.71,22.18"/>
    </edge>
    <edge id=":29_0" function="internal">
        <lane id=":29_0_0" index="0" disallow="bus truck rail_fast" speed="6.77" length="9.40" width="2.50" shape="-14.82,22.59 -14.94,23.06 -15.01,23.52 -15.04,23.97 -15.03,24.41 -14.98,24.83 -14.89,25.25 -14.75,25.64 -14.58,26.03 -14.37,26.41 -14.11,26.77 -13.82,27.12 -13.48,27.45 -13.10,27.78 -12.68,28.09 -12.22,28.39 -11.72,28.67 -11.18,28.95 -10.60,29.21 -9.98,29.46"/>
    </edge>
    <edge id=":29_1" function="internal">
        <lane id=":29_1_0" index="0" disallow="rail_fast" speed="36.11" length="8.26" width="2.50" shape="-17.69,26.50 -9.98,29.46"/>
    </edge>
    <edge id=":3_0" function="internal">
        <lane id=":3_0_0" index="0" disallow="bus truck rail_fast" speed="22.80" length="7.24" width="2.50" shape="40.10,9.71 40.44,9.29 40.74,8.91 41.01,8.56 41.26,8.24 41.48,7.95 41.68,7.68 41.85,7.42 42.02,7.16 42.17,6.92 42.31,6.66 42.44,6.41 42.57,6.13 42.69,5.84 42.82,5.53 42.95,5.19 43.09,4.82 43.24,4.40 43.40,3.94 43.58,3.43"/>
    </edge>
    <edge id=":3_1" function="internal">