<routes>
	<vehicle depart="0.1" departLane="0" departPos="3.1846275759533778" departSpeed="5.0978744" id="311" type="bicycle">
		<route edges=":39_4 11386"/>
	</vehicle>
	<vehicle depart="0.1" departLane="0" departPos="10.539085372243644" departSpeed="0.85398024" id="38" type="passenger">
		<route edges=":39_0 11216 11219"/>
	</vehicle>
	<vehicle depart="0.1" departLane="0" departPos="12.593484125100645" departSpeed="0.070493552" id="312" type="passenger">
		<route edges=":38_5 11552"/>
	</vehicle>
	<vehicle depart="0.1" departLane="0" departPos="68.96201379079619" departSpeed="0.078458417" id="314" type="passenger">
		<route edges="11385 11216"/>
	</vehicle>
	<vehicle depart="0.1" departLane="0" departPos="17.92204083111348" departSpeed="1.6297506" id="317" type="passenger">
		<route edges=":38_3 11213"/>
	</vehicle>
	<vehicle depart="0.1" departLane="0" departPos="37.0078510279498" departSpeed="0.0" id="321" type="passenger">
		<route edges="11553 11209"/>
	</vehicle>
	<vehicle depart="0.1" departLane="0" departPos="25.427959473650226" departSpeed="9.6204219" id="328" type="passenger">
		<route edges=":38_2 11552 11549"/>
	</vehicle>
	<vehicle depart="0.1" departLane="0" departPos="49.4418240026791" departSpeed="6.5925643" id="333" type="passenger">
		<route edges="11210 11552"/>
	</vehicle>
	<vehicle depart="0.1" departLane="0" departPos="9.932630317532963" departSpeed="2.6118929" id="334" type="passenger">
		<route edges="11215 11212"/>
	</vehicle>
	<vehicle depart="0.1" departLane="0" departPos="17.79336928177053" departSpeed="3.0893083" id="340" type="passenger">
		<route edges=":37_1 11215"/>
	</vehicle>
</routes>
