<routes>
	<vehicle depart="0.1" departLane="0" departPos="4.311355198463062" departSpeed="0.47320068" id="38" type="bicycle">
		<route edges=":39_0 29844"/>
	</vehicle>
	<vehicle depart="0.1" departLane="0" departPos="19.62564639607663" departSpeed="11.983083" id="34" type="passenger">
		<route edges=":39_0 29844 29386"/>
	</vehicle>
	<vehicle depart="0.1" departLane="0" departPos="8.587479342457002" departSpeed="6.0797839" id="310" type="passenger">
		<route edges=":39_1 29840 29837"/>
	</vehicle>
	<vehicle depart="0.1" departLane="0" departPos="17.252208583685366" departSpeed="5.4646417" id="336" type="passenger">
		<route edges="29881 29844"/>
	</vehicle>
	<vehicle depart="0.1" departLane="0" departPos="6.984524905393077" departSpeed="2.783424" id="352" type="passenger">
		<route edges="29881 29844"/>
	</vehicle>
</routes>
