<routes>
	<vehicle depart="0.1" departLane="0" departPos="7.0486818143606" departSpeed="6.5443407" id="39" type="bicycle">
		<route edges=":63_1 19829"/>
	</vehicle>
	<vehicle depart="0.1" departLane="0" departPos="23.137583326563117" departSpeed="1.0810446" id="32" type="passenger">
		<route edges="19828 19708"/>
	</vehicle>
	<vehicle depart="0.1" departLane="0" departPos="12.846568312017165" departSpeed="1.550247" id="35" type="passenger">
		<route edges="19828 19708"/>
	</vehicle>
	<vehicle depart="0.1" departLane="0" departPos="28.79658235135784" departSpeed="1.2813955" id="315" type="passenger">
		<route edges="19828 19708"/>
	</vehicle>
	<vehicle depart="0.1" departLane="0" departPos="37.48950203250653" departSpeed="2.7385832" id="340" type="passenger">
		<route edges="19829 20335"/>
	</vehicle>
	<vehicle depart="0.1" departLane="0" departPos="12.712076260463599" departSpeed="13.823566" id="346" type="passenger">
		<route edges=":57_3 19828 19708"/>
	</vehicle>
	<vehicle depart="0.1" departLane="0" departPos="28.742181497677336" departSpeed="1.3998456" id="348" type="passenger">
		<route edges="19829 19832"/>
	</vehicle>
	<vehicle depart="0.1" departLane="0" departPos="16.786618718923137" departSpeed="3.7489841" id="356" type="passenger">
		<route edges="19829 20335"/>
	</vehicle>
	<vehicle depart="0.1" departLane="0" departPos="72.49999635010373" departSpeed="1.1439105" id="358" type="passenger">
		<route edges="19709 19712"/>
	</vehicle>
	<vehicle depart="0.1" departLane="0" departPos="55.95839536118609" departSpeed="4.2178375" id="361" type="motorcycle">
		<route edges="19709 19712"/>
	</vehicle>
</routes>
