<routes>
	<vehicle depart="0.1" departLane="2" departPos="90.30867442084744" departSpeed="15.4715" id="25" type="passenger">
		<route edges="73 24"/>
	</vehicle>
	<vehicle depart="0.1" departLane="1" departPos="78.81402478723118" departSpeed="14.5654" id="31" type="passenger">
		<route edges="73 73 24"/>
	</vehicle>
	<vehicle depart="0.1" departLane="1" departPos="94.76268119809188" departSpeed="10.809" id="33" type="passenger">
		<route edges="73 24"/>
	</vehicle>
	<vehicle depart="0.1" departLane="2" departPos="72.46554602165051" departSpeed="12.3065" id="34" type="passenger">
		<route edges="73 24"/>
	</vehicle>
	<vehicle depart="0.1" departLane="4" departPos="70.15312680775376" departSpeed="15.4661" id="37" type="passenger">
		<route edges="73 24"/>
	</vehicle>
	<vehicle depart="0.1" departLane="5" departPos="111.69197842317044" departSpeed="12.2356" id="39" type="passenger">
		<route edges="73 24"/>
	</vehicle>
	<vehicle depart="0.1" departLane="1" departPos="70.71065552785957" departSpeed="12.2011" id="42" type="passenger">
		<route edges="73 24"/>
	</vehicle>
	<vehicle depart="0.1" departLane="5" departPos="59.732035130968555" departSpeed="13.1736" id="43" type="passenger">
		<route edges="73 24"/>
	</vehicle>
	<vehicle depart="0.1" departLane="3" departPos="73.17211476729351" departSpeed="20.5253" id="44" type="passenger">
		<route edges="73 24"/>
	</vehicle>
	<vehicle depart="0.1" departLane="3" departPos="44.760622972671214" departSpeed="15.2699" id="47" type="passenger">
		<route edges="73 24"/>
	</vehicle>
	<vehicle depart="0.1" departLane="4" departPos="58.23692799091528" departSpeed="16.521" id="49" type="passenger">
		<route edges="73 24"/>
	</vehicle>
	<vehicle depart="0.1" departLane="0" departPos="75.82239977762775" departSpeed="21.4051" id="53" type="passenger">
		<route edges="73 74"/>
	</vehicle>
	<vehicle depart="0.1" departLane="5" departPos="73.4954129510167" departSpeed="16.7905" id="54" type="passenger">
		<route edges="73 24"/>
	</vehicle>
</routes>
