<!-- generated on Tue Feb  9 22:22:31 2021 by Eclipse SUMO netconvert Version 1.8.0
<configuration xmlns:xsi="http://www.w3.org/2001/XMLSchema-instance" xsi:noNamespaceSchemaLocation="http://sumo.dlr.de/xsd/netconvertConfiguration.xsd">

    <input>
        <node-files value="./converted_scenarios/scenario-factory/ITA_CarpiCentro-8_2_I-1-1/ITA_CarpiCentro-8_2_I-1-1.nod.xml"/>
        <edge-files value="./converted_scenarios/scenario-factory/ITA_CarpiCentro-8_2_I-1-1/ITA_CarpiCentro-8_2_I-1-1.edg.xml"/>
        <connection-files value="./converted_scenarios/scenario-factory/ITA_CarpiCentro-8_2_I-1-1/ITA_CarpiCentro-8_2_I-1-1.con.xml"/>
        <tllogic-files value="./converted_scenarios/scenario-factory/ITA_CarpiCentro-8_2_I-1-1/ITA_CarpiCentro-8_2_I-1-1.tll.xml"/>
        <type-files value="/home/zen/commonroad-interactive-benchmarks/install/commonroad-map-tool/crmapconverter/sumo_map/templates/DEU.typ.xml"/>
    </input>

    <output>
        <output-file value="./converted_scenarios/scenario-factory/ITA_CarpiCentro-8_2_I-1-1/ITA_CarpiCentro-8_2_I-1-1.net.xml"/>
    </output>

    <processing>
        <geometry.remove.keep-edges.explicit value="true"/>
        <geometry.avoid-overlap value="true"/>
        <offset.disable-normalization value="true"/>
    </processing>

    <junctions>
        <no-turnarounds value="true"/>
        <junctions.internal-link-detail value="20"/>
    </junctions>

    <report>
        <aggregate-warnings value="5"/>
    </report>

    <random_number>
        <seed value="1234"/>
    </random_number>

</configuration>
--><net xmlns:xsi="http://www.w3.org/2001/XMLSchema-instance" version="1.6" junctionCornerDetail="5" junctionLinkDetail="20" limitTurnSpeed="5.50" xsi:noNamespaceSchemaLocation="http://sumo.dlr.de/xsd/net_file.xsd">

    <location netOffset="0.00,0.00" convBoundary="62.94,449.25,295.07,661.27" origBoundary="62.94,449.25,295.07,661.27" projParameter="!"/>

    <type id="highway.bridleway" priority="1" speed="2.78" allow="pedestrian" oneway="1" width="2.00"/>
    <type id="highway.bus_guideway" priority="1" speed="27.78" allow="bus" oneway="1"/>
    <type id="highway.cycleway" priority="1" speed="8.33" allow="bicycle" oneway="0" width="1.00"/>
    <type id="highway.footway" priority="1" speed="2.78" allow="pedestrian" oneway="1" width="2.00"/>
    <type id="highway.ford" priority="1" speed="2.78" allow="army" oneway="0"/>
    <type id="highway.living_street" priority="2" speed="2.78" disallow="tram rail_urban rail rail_electric rail_fast ship" oneway="0"/>
    <type id="highway.motorway" priority="14" speed="39.44" allow="private emergency authority army vip passenger hov taxi bus coach delivery truck trailer motorcycle evehicle custom1 custom2" oneway="1"/>
    <type id="highway.motorway_link" priority="9" speed="22.22" allow="private emergency authority army vip passenger hov taxi bus coach delivery truck trailer motorcycle evehicle custom1 custom2" oneway="1"/>
    <type id="highway.path" priority="1" speed="2.78" allow="pedestrian bicycle" oneway="0" width="2.00"/>
    <type id="highway.pedestrian" priority="1" speed="2.78" allow="pedestrian" oneway="1" width="2.00"/>
    <type id="highway.primary" priority="12" speed="27.78" disallow="pedestrian tram rail_urban rail rail_electric rail_fast ship" oneway="0"/>
    <type id="highway.primary_link" priority="7" speed="22.22" disallow="pedestrian tram rail_urban rail rail_electric rail_fast ship" oneway="0"/>
    <type id="highway.raceway" priority="15" speed="83.33" allow="vip" oneway="0"/>
    <type id="highway.residential" priority="3" speed="13.89" disallow="pedestrian tram rail_urban rail rail_electric rail_fast ship" oneway="0"/>
    <type id="highway.secondary" priority="11" speed="27.78" disallow="pedestrian tram rail_urban rail rail_electric rail_fast ship" oneway="0"/>
    <type id="highway.secondary_link" priority="6" speed="22.22" disallow="pedestrian tram rail_urban rail rail_electric rail_fast ship" oneway="0"/>
    <type id="highway.service" priority="1" speed="5.56" allow="pedestrian delivery bicycle" oneway="0"/>
    <type id="highway.stairs" priority="1" speed="1.39" allow="pedestrian" oneway="1" width="2.00"/>
    <type id="highway.step" priority="1" speed="1.39" allow="pedestrian" oneway="1" width="2.00"/>
    <type id="highway.steps" priority="1" speed="1.39" allow="pedestrian" oneway="1" width="2.00"/>
    <type id="highway.tertiary" priority="10" speed="22.22" disallow="pedestrian tram rail_urban rail rail_electric rail_fast ship" oneway="0"/>
    <type id="highway.tertiary_link" priority="5" speed="22.22" disallow="pedestrian tram rail_urban rail rail_electric rail_fast ship" oneway="0"/>
    <type id="highway.track" priority="1" speed="5.56" allow="pedestrian motorcycle moped bicycle" oneway="0"/>
    <type id="highway.trunk" priority="13" speed="27.78" disallow="pedestrian bicycle tram rail_urban rail rail_electric rail_fast ship" oneway="0"/>
    <type id="highway.trunk_link" priority="8" speed="22.22" disallow="pedestrian bicycle tram rail_urban rail rail_electric rail_fast ship" oneway="0"/>
    <type id="highway.unclassified" priority="4" speed="13.89" disallow="pedestrian tram rail_urban rail rail_electric rail_fast ship" oneway="0"/>
    <type id="highway.unsurfaced" priority="1" speed="8.33" disallow="tram rail_urban rail rail_electric rail_fast ship" oneway="0"/>
    <type id="railway.highspeed" priority="21" speed="69.44" allow="rail_fast" oneway="1"/>
    <type id="railway.light_rail" priority="19" speed="27.78" allow="rail_urban" oneway="1"/>
    <type id="railway.preserved" priority="16" speed="27.78" allow="rail" oneway="1"/>
    <type id="railway.rail" priority="20" speed="44.44" allow="rail" oneway="1"/>
    <type id="railway.subway" priority="18" speed="27.78" allow="rail_urban" oneway="1"/>
    <type id="railway.tram" priority="17" speed="13.89" allow="tram" oneway="1"/>

    <edge id=":29_0" function="internal">
        <lane id=":29_0_0" index="0" disallow="pedestrian tram rail_urban rail rail_electric rail_fast ship" speed="11.37" length="28.76" width="3.50" shape="262.97,548.21 261.89,546.18 260.66,544.28 259.27,542.54 257.72,541.01 255.96,539.70 255.06,539.19 254.10,538.74 253.11,538.37 252.08,538.09 251.07,537.89 248.88,537.73 246.69,537.88 244.50,538.28 242.33,538.89 239.09,540.16"/>
    </edge>
    <edge id=":29_1" function="internal">
        <lane id=":29_1_0" index="0" disallow="pedestrian tram rail_urban rail rail_electric rail_fast ship" speed="36.11" length="38.60" width="3.50" shape="262.97,548.21 254.45,530.90 245.93,513.57"/>
    </edge>
    <edge id=":29_2" function="internal">
        <lane id=":29_2_0" index="0" disallow="pedestrian tram rail_urban rail rail_electric rail_fast ship" speed="36.11" length="38.58" width="3.50" shape="249.07,512.03 257.59,529.35 266.10,546.65"/>
    </edge>
    <edge id=":29_3" function="internal">
        <lane id=":29_3_0" index="0" disallow="pedestrian tram rail_urban rail rail_electric rail_fast ship" speed="12.08" length="34.55" width="3.50" shape="249.07,512.03 250.66,515.71 251.46,518.24 252.00,520.84 252.21,523.48 252.17,524.81 252.02,526.13 251.76,527.43 251.38,528.70 250.88,529.93 250.28,531.11 249.57,532.23 248.77,533.29 246.94,535.22 244.88,536.89 242.66,538.33 239.09,540.16"/>
    </edge>
    <edge id=":29_4" function="internal">
        <lane id=":29_4_0" index="0" disallow="pedestrian tram rail_urban rail rail_electric rail_fast ship" speed="11.07" length="28.83" width="3.50" shape="237.66,536.97 240.77,535.38 242.65,534.15 244.38,532.75 245.90,531.14 246.53,530.31 247.10,529.41 247.58,528.47 247.97,527.49 248.27,526.48 248.48,525.44 248.60,524.38 248.63,523.33 248.45,521.12 248.00,518.93 247.32,516.79 245.93,513.57"/>
    </edge>
    <edge id=":29_5" function="internal">
        <lane id=":29_5_0" index="0" disallow="pedestrian tram rail_urban rail rail_electric rail_fast ship" speed="12.35" length="34.19" width="3.50" shape="237.66,536.97 241.36,535.52 243.89,534.81 246.47,534.34 249.10,534.17 251.71,534.37 253.00,534.62 254.27,534.97 255.50,535.43 256.69,535.99 257.83,536.65 259.93,538.22 261.80,540.07 263.43,542.12 264.86,544.33 266.10,546.65"/>
    </edge>
    <edge id=":30_0" function="internal">
        <lane id=":30_0_0" index="0" disallow="pedestrian tram rail_urban rail rail_electric rail_fast ship" speed="11.03" length="28.90" width="3.50" shape="149.82,602.60 148.16,599.51 146.90,597.64 145.47,595.92 143.83,594.42 142.99,593.80 142.08,593.24 141.13,592.77 140.14,592.39 139.13,592.11 138.09,591.92 137.02,591.82 135.98,591.81 133.77,592.04 131.60,592.56 129.47,593.31 126.29,594.80"/>
    </edge>
    <edge id=":30_1" function="internal">
        <lane id=":30_1_0" index="0" disallow="pedestrian tram rail_urban rail rail_electric rail_fast ship" speed="12.38" length="34.72" width="3.50" shape="149.82,602.60 148.33,599.01 147.57,596.55 147.04,594.04 146.80,591.48 146.90,588.91 147.10,587.64 147.39,586.39 147.78,585.17 148.28,583.98 148.87,582.84 150.30,580.71 152.02,578.80 153.96,577.12 156.05,575.63 159.41,573.73"/>
    </edge>
    <edge id=":30_2" function="internal">
        <lane id=":30_2_0" index="0" disallow="pedestrian tram rail_urban rail rail_electric rail_fast ship" speed="11.40" length="29.27" width="3.50" shape="161.01,576.84 158.05,578.52 156.26,579.78 154.63,581.21 153.20,582.79 152.01,584.57 151.55,585.47 151.15,586.43 150.84,587.41 150.60,588.43 150.45,589.43 150.37,591.58 150.57,593.72 151.02,595.85 151.67,597.96 152.98,601.11"/>
    </edge>
    <edge id=":30_3" function="internal">
        <lane id=":30_3_0" index="0" disallow="pedestrian tram rail_urban rail rail_electric rail_fast ship" speed="36.11" length="39.09" width="3.50" shape="161.01,576.84 147.24,583.82 126.29,594.80"/>
    </edge>
    <edge id=":30_4" function="internal">
        <lane id=":30_4_0" index="0" disallow="pedestrian tram rail_urban rail rail_electric rail_fast ship" speed="36.11" length="39.15" width="3.50" shape="124.64,591.72 145.64,580.71 159.41,573.73"/>
    </edge>
    <edge id=":30_5" function="internal">
        <lane id=":30_5_0" index="0" disallow="pedestrian tram rail_urban rail rail_electric rail_fast ship" speed="12.05" length="34.68" width="3.50" shape="124.64,591.72 128.29,590.00 130.80,589.12 133.39,588.50 136.04,588.22 137.37,588.23 138.69,588.36 140.00,588.60 141.28,588.96 142.53,589.43 143.72,590.03 144.85,590.72 145.93,591.51 147.88,593.31 149.59,595.35 151.08,597.56 152.98,601.11"/>
    </edge>
    <edge id=":31_0" function="internal">
        <lane id=":31_0_0" index="0" disallow="pedestrian tram rail_urban rail rail_electric rail_fast ship" speed="11.30" length="28.86" width="3.50" shape="201.41,576.86 199.73,573.98 198.43,572.18 196.96,570.52 195.32,569.03 193.48,567.78 192.50,567.27 191.47,566.85 190.41,566.51 189.33,566.27 188.23,566.11 187.12,566.05 184.91,566.18 182.73,566.60 180.61,567.25 178.56,568.09 177.55,568.57"/>
    </edge>
    <edge id=":31_1" function="internal">
        <lane id=":31_1_0" index="0" disallow="pedestrian tram rail_urban rail rail_electric rail_fast ship" speed="12.02" length="34.77" width="3.50" shape="201.41,576.86 199.74,573.21 198.89,570.68 198.30,568.07 198.07,565.40 198.10,564.07 198.25,562.74 198.52,561.43 198.92,560.15 199.43,558.92 200.06,557.73 200.78,556.61 201.60,555.56 203.47,553.64 205.56,551.98 207.81,550.53 211.39,548.71"/>
    </edge>
    <edge id=":31_2" function="internal">
        <lane id=":31_2_0" index="0" disallow="pedestrian tram rail_urban rail rail_electric rail_fast ship" speed="11.01" length="28.97" width="3.50" shape="212.84,551.89 209.70,553.49 207.79,554.72 206.03,556.11 204.47,557.72 203.82,558.55 203.24,559.45 202.74,560.39 202.33,561.36 202.02,562.37 201.81,563.41 201.69,564.47 201.65,565.52 201.85,567.74 202.34,569.92 203.06,572.07 204.51,575.24"/>
    </edge>
    <edge id=":31_3" function="internal">
        <lane id=":31_3_0" index="0" disallow="pedestrian tram rail_urban rail rail_electric rail_fast ship" speed="36.11" length="39.04" width="3.50" shape="212.84,551.89 210.95,552.74 194.16,560.49 177.55,568.57"/>
    </edge>
    <edge id=":31_4" function="internal">
        <lane id=":31_4_0" index="0" disallow="pedestrian tram rail_urban rail rail_electric rail_fast ship" speed="36.11" length="39.17" width="3.50" shape="175.98,565.44 192.66,557.33 209.50,549.56 211.39,548.71"/>
    </edge>
    <edge id=":31_5" function="internal">
        <lane id=":31_5_0" index="0" disallow="pedestrian tram rail_urban rail rail_electric rail_fast ship" speed="12.30" length="34.38" width="3.50" shape="175.98,565.44 177.16,564.88 179.53,563.91 182.02,563.14 184.62,562.64 187.26,562.48 188.65,562.55 190.00,562.73 191.33,563.03 192.64,563.44 193.90,563.96 195.14,564.60 197.34,566.09 199.32,567.87 201.05,569.83 202.58,571.94 204.51,575.24"/>
    </edge>

    <edge id="51739" from="29" to="22" priority="3" type="highway.residential" spreadType="center" length="69.99" shape="248.53,533.62 215.02,450.77">
        <lane id="51739_0" index="0" disallow="pedestrian tram rail_urban rail rail_electric rail_fast ship" speed="36.11" length="69.99" width="3.50" customShape="1" shape="245.93,513.57 228.65,478.46 215.02,450.77"/>
    </edge>
    <edge id="51740" from="27" to="29" priority="3" type="highway.residential" spreadType="center" length="69.99" shape="218.18,449.25 251.77,532.31">
        <lane id="51740_0" index="0" disallow="pedestrian tram rail_urban rail rail_electric rail_fast ship" speed="36.11" length="69.99" width="3.50" customShape="1" shape="218.18,449.25 231.79,476.91 249.08,512.05"/>
    </edge>
    <edge id="51742" from="26" to="29" priority="3" type="highway.residential" spreadType="center" length="65.59" shape="291.93,607.04 248.61,533.79">
        <lane id="51742_0" index="0" disallow="pedestrian tram rail_urban rail rail_electric rail_fast ship" speed="36.11" length="65.59" width="3.50" customShape="1" shape="291.93,607.04 277.45,577.62 262.96,548.19"/>
    </edge>
    <edge id="51743" from="29" to="24" priority="3" type="highway.residential" spreadType="center" length="65.59" shape="251.63,532.01 295.07,605.50">
        <lane id="51743_0" index="0" disallow="pedestrian tram rail_urban rail rail_electric rail_fast ship" speed="36.11" length="65.59" width="3.50" customShape="1" shape="266.10,546.65 280.59,576.07 295.07,605.50"/>
    </edge>
    <edge id="51846" from="31" to="29" priority="3" type="highway.residential" spreadType="center" length="28.78" shape="196.34,562.98 249.24,531.43">
        <lane id="51846_0" index="0" disallow="pedestrian tram rail_urban rail rail_electric rail_fast ship" speed="36.11" length="28.78" width="3.50" customShape="1" shape="211.39,548.71 224.54,542.83 237.66,536.96"/>
    </edge>
    <edge id="51847" from="29" to="31" priority="3" type="highway.residential" spreadType="center" length="28.79" shape="251.03,534.44 198.13,565.98">
        <lane id="51847_0" index="0" disallow="pedestrian tram rail_urban rail rail_electric rail_fast ship" speed="36.11" length="28.79" width="3.50" customShape="1" shape="239.09,540.16 225.96,546.03 212.81,551.91"/>
    </edge>
    <edge id="51849" from="30" to="31" priority="3" type="highway.residential" spreadType="center" length="18.55" shape="144.92,588.57 196.55,562.86">
        <lane id="51849_0" index="0" disallow="pedestrian tram rail_urban rail rail_electric rail_fast ship" speed="36.11" length="18.55" width="3.50" customShape="1" shape="159.41,573.73 167.70,569.59 176.00,565.44"/>
    </edge>
    <edge id="51850" from="31" to="30" priority="3" type="highway.residential" spreadType="center" length="18.53" shape="198.11,565.99 146.48,591.70">
        <lane id="51850_0" index="0" disallow="pedestrian tram rail_urban rail rail_electric rail_fast ship" speed="36.11" length="18.53" width="3.50" customShape="1" shape="177.55,568.57 169.26,572.72 160.98,576.86"/>
    </edge>
    <edge id="51852" from="28" to="30" priority="3" type="highway.residential" spreadType="center" length="70.00" shape="62.94,624.70 145.02,588.52">
        <lane id="51852_0" index="0" disallow="pedestrian tram rail_urban rail rail_electric rail_fast ship" speed="36.11" length="70.00" width="3.50" customShape="1" shape="62.94,624.70 79.75,615.71 124.67,591.70"/>
    </edge>
    <edge id="51853" from="30" to="18" priority="3" type="highway.residential" spreadType="center" length="70.00" shape="146.43,591.72 64.56,627.80">
        <lane id="51853_0" index="0" disallow="pedestrian tram rail_urban rail rail_electric rail_fast ship" speed="36.11" length="70.00" width="3.50" customShape="1" shape="126.29,594.80 81.40,618.80 64.56,627.80"/>
    </edge>
    <edge id="52046" from="25" to="30" priority="3" type="highway.residential" spreadType="center" length="64.87" shape="177.49,661.27 144.10,590.85">
        <lane id="52046_0" index="0" disallow="pedestrian tram rail_urban rail rail_electric rail_fast ship" speed="36.11" length="64.87" width="3.50" customShape="1" shape="177.49,661.27 163.65,631.92 149.82,602.60"/>
    </edge>
    <edge id="52047" from="30" to="17" priority="3" type="highway.residential" spreadType="center" length="64.86" shape="147.26,589.35 180.66,659.77">
        <lane id="52047_0" index="0" disallow="pedestrian tram rail_urban rail rail_electric rail_fast ship" speed="36.11" length="64.86" width="3.50" customShape="1" shape="152.98,601.11 166.81,630.43 180.66,659.77"/>
    </edge>
    <edge id="52085" from="10" to="31" priority="3" type="highway.residential" spreadType="center" length="64.17" shape="231.09,633.75 195.71,565.22">
        <lane id="52085_0" index="0" disallow="pedestrian tram rail_urban rail rail_electric rail_fast ship" speed="36.11" length="64.17" width="3.50" customShape="1" shape="231.09,633.75 216.25,605.30 201.41,576.86"/>
    </edge>
    <edge id="52086" from="31" to="6" priority="3" type="highway.residential" spreadType="center" length="64.17" shape="198.82,563.61 234.19,632.13">
        <lane id="52086_0" index="0" disallow="pedestrian tram rail_urban rail rail_electric rail_fast ship" speed="36.11" length="64.17" width="3.50" customShape="1" shape="204.51,575.24 219.35,603.68 234.19,632.13"/>
    </edge>

    <junction id="10" type="dead_end" x="231.09" y="633.75" incLanes="" intLanes="" shape="232.64,632.94 229.54,634.56" rightOfWay="edgePriority"/>
    <junction id="17" type="dead_end" x="180.66" y="659.77" incLanes="52047_0" intLanes="" shape="182.24,659.03 179.08,660.52" rightOfWay="edgePriority"/>
    <junction id="18" type="dead_end" x="64.56" y="627.80" incLanes="51853_0" intLanes="" shape="65.38,629.35 63.73,626.26" rightOfWay="edgePriority"/>
    <junction id="22" type="dead_end" x="215.02" y="450.77" incLanes="51739_0" intLanes="" shape="213.45,451.54 216.59,449.99" rightOfWay="edgePriority"/>
    <junction id="24" type="dead_end" x="295.07" y="605.50" incLanes="51743_0" intLanes="" shape="296.64,604.72 293.50,606.27" rightOfWay="edgePriority"/>
    <junction id="25" type="dead_end" x="177.49" y="661.27" incLanes="" intLanes="" shape="179.08,660.52 175.91,662.01" rightOfWay="edgePriority"/>
    <junction id="26" type="dead_end" x="291.93" y="607.04" incLanes="" intLanes="" shape="293.50,606.27 290.36,607.82" rightOfWay="edgePriority"/>
    <junction id="27" type="dead_end" x="218.18" y="449.25" incLanes="" intLanes="" shape="216.61,450.02 219.75,448.47" rightOfWay="edgePriority"/>
    <junction id="28" type="dead_end" x="62.94" y="624.70" incLanes="" intLanes="" shape="63.76,626.24 62.11,623.16" rightOfWay="edgePriority"/>
    <junction id="29" type="priority" x="250.14" y="532.93" incLanes="51742_0 51740_0 51846_0" intLanes=":29_0_0 :29_1_0 :29_2_0 :29_3_0 :29_4_0 :29_5_0" shape="261.39,548.96 267.67,545.87 250.64,511.26 244.36,514.35 246.14,518.96 246.71,523.13 246.08,526.86 244.24,530.14 241.19,532.98 236.94,535.37 239.80,541.76 244.51,540.12 248.77,539.62 252.59,540.25 255.97,542.02 258.91,544.92">
        <request index="0" response="000000" foes="001000" cont="0"/>
        <request index="1" response="000000" foes="111000" cont="0"/>
        <request index="2" response="000000" foes="100000" cont="0"/>
        <request index="3" response="000011" foes="100011" cont="0"/>
        <request index="4" response="000010" foes="000010" cont="0"/>
        <request index="5" response="001110" foes="001110" cont="0"/>
    </junction>
    <junction id="30" type="priority" x="145.70" y="590.13" incLanes="52046_0 51850_0 51852_0" intLanes=":30_0_0 :30_1_0 :30_2_0 :30_3_0 :30_4_0 :30_5_0" shape="148.23,603.35 154.56,600.36 152.82,595.63 152.25,591.33 152.86,587.46 154.65,584.02 157.61,581.01 161.76,578.42 158.63,572.16 123.82,590.17 127.12,596.35 131.65,594.43 135.79,593.74 139.51,594.29 142.83,596.08 145.73,599.10">
        <request index="0" response="001000" foes="001000" cont="0"/>
        <request index="1" response="111000" foes="111000" cont="0"/>
        <request index="2" response="000000" foes="100000" cont="0"/>
        <request index="3" response="000000" foes="100011" cont="0"/>
        <request index="4" response="000000" foes="000010" cont="0"/>
        <request index="5" response="001100" foes="001110" cont="0"/>
    </junction>
    <junction id="31" type="priority" x="197.28" y="564.45" incLanes="52085_0 51847_0 51849_0" intLanes=":31_0_0 :31_1_0 :31_2_0 :31_3_0 :31_4_0 :31_5_0" shape="199.86,577.67 206.06,574.43 204.20,569.89 203.58,565.77 204.21,562.07 206.07,558.79 209.18,555.94 213.53,553.50 210.67,547.11 175.20,563.88 178.33,570.14 182.81,568.41 186.93,567.87 190.69,568.53 194.10,570.38 197.16,573.43">
        <request index="0" response="001000" foes="001000" cont="0"/>
        <request index="1" response="111000" foes="111000" cont="0"/>
        <request index="2" response="000000" foes="100000" cont="0"/>
        <request index="3" response="000000" foes="100011" cont="0"/>
        <request index="4" response="000000" foes="000010" cont="0"/>
        <request index="5" response="001100" foes="001110" cont="0"/>
    </junction>
    <junction id="6" type="dead_end" x="234.19" y="632.13" incLanes="52086_0" intLanes="" shape="235.75,631.32 232.64,632.94" rightOfWay="edgePriority"/>

    <connection from="51740" to="51743" fromLane="0" toLane="0" contPos="-4.00" shape="249.08,512.05 257.59,529.35 266.10,546.65" via=":29_2_0" dir="s" state="M"/>
    <connection from="51740" to="51847" fromLane="0" toLane="0" contPos="-4.00" shape="249.08,512.05 250.66,515.71 251.46,518.24 252.00,520.84 252.21,523.48 252.17,524.81 252.02,526.13 251.76,527.43 251.38,528.70 250.88,529.93 250.28,531.11 249.57,532.23 248.77,533.29 246.94,535.22 244.88,536.89 242.66,538.33 239.09,540.16" via=":29_3_0" dir="l" state="m"/>
    <connection from="51742" to="51847" fromLane="0" toLane="0" contPos="-4.00" shape="262.97,548.21 261.89,546.18 260.66,544.28 259.27,542.54 257.72,541.01 255.96,539.70 255.06,539.19 254.10,538.74 253.11,538.37 252.08,538.09 251.07,537.89 248.88,537.73 246.69,537.88 244.50,538.28 242.33,538.89 239.09,540.16" via=":29_0_0" dir="r" state="M"/>
    <connection from="51742" to="51739" fromLane="0" toLane="0" contPos="-4.00" shape="262.97,548.21 254.45,530.90 245.93,513.57" via=":29_1_0" dir="s" state="M"/>
    <connection from="51846" to="51739" fromLane="0" toLane="0" contPos="-4.00" shape="237.66,536.97 240.77,535.38 242.65,534.15 244.38,532.75 245.90,531.14 246.53,530.31 247.10,529.41 247.58,528.47 247.97,527.49 248.27,526.48 248.48,525.44 248.60,524.38 248.63,523.33 248.45,521.12 248.00,518.93 247.32,516.79 245.93,513.57" via=":29_4_0" dir="r" state="m"/>
    <connection from="51846" to="51743" fromLane="0" toLane="0" contPos="-4.00" shape="237.66,536.97 241.36,535.52 243.89,534.81 246.47,534.34 249.10,534.17 251.71,534.37 253.00,534.62 254.27,534.97 255.50,535.43 256.69,535.99 257.83,536.65 259.93,538.22 261.80,540.07 263.43,542.12 264.86,544.33 266.10,546.65" via=":29_5_0" dir="l" state="m"/>
    <connection from="51847" to="52086" fromLane="0" toLane="0" contPos="-4.00" shape="212.84,551.89 209.70,553.49 207.79,554.72 206.03,556.11 204.47,557.72 203.82,558.55 203.24,559.45 202.74,560.39 202.33,561.36 202.02,562.37 201.81,563.41 201.69,564.47 201.65,565.52 201.85,567.74 202.34,569.92 203.06,572.07 204.51,575.24" via=":31_2_0" dir="r" state="M"/>
    <connection from="51847" to="51850" fromLane="0" toLane="0" contPos="-4.00" shape="212.84,551.89 210.95,552.74 194.16,560.49 177.55,568.57" via=":31_3_0" dir="s" state="M"/>
    <connection from="51849" to="51846" fromLane="0" toLane="0" contPos="-4.00" shape="176.00,565.44 192.66,557.33 209.50,549.56 211.39,548.71" via=":31_4_0" dir="s" state="M"/>
    <connection from="51849" to="52086" fromLane="0" toLane="0" contPos="-4.00" shape="176.00,565.44 177.16,564.88 179.53,563.91 182.02,563.14 184.62,562.64 187.26,562.48 188.65,562.55 190.00,562.73 191.33,563.03 192.64,563.44 193.90,563.96 195.14,564.60 197.34,566.09 199.32,567.87 201.05,569.83 202.58,571.94 204.51,575.24" via=":31_5_0" dir="l" state="m"/>
    <connection from="51850" to="52047" fromLane="0" toLane="0" contPos="-4.00" shape="161.01,576.84 158.05,578.52 156.26,579.78 154.63,581.21 153.20,582.79 152.01,584.57 151.55,585.47 151.15,586.43 150.84,587.41 150.60,588.43 150.45,589.43 150.37,591.58 150.57,593.72 151.02,595.85 151.67,597.96 152.98,601.11" via=":30_2_0" dir="r" state="M"/>
    <connection from="51850" to="51853" fromLane="0" toLane="0" contPos="-4.00" shape="161.01,576.84 147.24,583.82 126.29,594.80" via=":30_3_0" dir="s" state="M"/>
    <connection from="51852" to="51849" fromLane="0" toLane="0" contPos="-4.00" shape="124.67,591.70 145.64,580.71 159.41,573.73" via=":30_4_0" dir="s" state="M"/>
    <connection from="51852" to="52047" fromLane="0" toLane="0" contPos="-4.00" shape="124.67,591.70 128.29,590.00 130.80,589.12 133.39,588.50 136.04,588.22 137.37,588.23 138.69,588.36 140.00,588.60 141.28,588.96 142.53,589.43 143.72,590.03 144.85,590.72 145.93,591.51 147.88,593.31 149.59,595.35 151.08,597.56 152.98,601.11" via=":30_5_0" dir="l" state="m"/>
    <connection from="52046" to="51853" fromLane="0" toLane="0" contPos="-4.00" shape="149.82,602.60 148.16,599.51 146.90,597.64 145.47,595.92 143.83,594.42 142.99,593.80 142.08,593.24 141.13,592.77 140.14,592.39 139.13,592.11 138.09,591.92 137.02,591.82 135.98,591.81 133.77,592.04 131.60,592.56 129.47,593.31 126.29,594.80" via=":30_0_0" dir="r" state="m"/>
    <connection from="52046" to="51849" fromLane="0" toLane="0" contPos="-4.00" shape="149.82,602.60 148.33,599.01 147.57,596.55 147.04,594.04 146.80,591.48 146.90,588.91 147.10,587.64 147.39,586.39 147.78,585.17 148.28,583.98 148.87,582.84 150.30,580.71 152.02,578.80 153.96,577.12 156.05,575.63 159.41,573.73" via=":30_1_0" dir="l" state="m"/>
    <connection from="52085" to="51850" fromLane="0" toLane="0" contPos="-4.00" shape="201.41,576.86 199.73,573.98 198.43,572.18 196.96,570.52 195.32,569.03 193.48,567.78 192.50,567.27 191.47,566.85 190.41,566.51 189.33,566.27 188.23,566.11 187.12,566.05 184.91,566.18 182.73,566.60 180.61,567.25 178.56,568.09 177.55,568.57" via=":31_0_0" dir="r" state="m"/>
    <connection from="52085" to="51846" fromLane="0" toLane="0" contPos="-4.00" shape="201.41,576.86 199.74,573.21 198.89,570.68 198.30,568.07 198.07,565.40 198.10,564.07 198.25,562.74 198.52,561.43 198.92,560.15 199.43,558.92 200.06,557.73 200.78,556.61 201.60,555.56 203.47,553.64 205.56,551.98 207.81,550.53 211.39,548.71" via=":31_1_0" dir="l" state="m"/>

    <connection from=":29_0" to="51847" fromLane="0" toLane="0" dir="r" state="M"/>
    <connection from=":29_1" to="51739" fromLane="0" toLane="0" dir="s" state="M"/>
    <connection from=":29_2" to="51743" fromLane="0" toLane="0" dir="s" state="M"/>
    <connection from=":29_3" to="51847" fromLane="0" toLane="0" dir="l" state="M"/>
    <connection from=":29_4" to="51739" fromLane="0" toLane="0" dir="r" state="M"/>
    <connection from=":29_5" to="51743" fromLane="0" toLane="0" dir="l" state="M"/>
    <connection from=":30_0" to="51853" fromLane="0" toLane="0" dir="r" state="M"/>
    <connection from=":30_1" to="51849" fromLane="0" toLane="0" dir="l" state="M"/>
    <connection from=":30_2" to="52047" fromLane="0" toLane="0" dir="r" state="M"/>
    <connection from=":30_3" to="51853" fromLane="0" toLane="0" dir="s" state="M"/>
    <connection from=":30_4" to="51849" fromLane="0" toLane="0" dir="s" state="M"/>
    <connection from=":30_5" to="52047" fromLane="0" toLane="0" dir="l" state="M"/>
    <connection from=":31_0" to="51850" fromLane="0" toLane="0" dir="r" state="M"/>
    <connection from=":31_1" to="51846" fromLane="0" toLane="0" dir="l" state="M"/>
    <connection from=":31_2" to="52086" fromLane="0" toLane="0" dir="r" state="M"/>
    <connection from=":31_3" to="51850" fromLane="0" toLane="0" dir="s" state="M"/>
    <connection from=":31_4" to="51846" fromLane="0" toLane="0" dir="s" state="M"/>
    <connection from=":31_5" to="52086" fromLane="0" toLane="0" dir="l" state="M"/>

</net>