<routes>
	<vehicle depart="0.1" departLane="0" departPos="55.73434028799201" departSpeed="0.17808098" id="310" type="bicycle">
		<route edges="51740 51743"/>
	</vehicle>
	<vehicle depart="0.1" departLane="0" departPos="63.21141681837645" departSpeed="0.11572833" id="39" type="passenger">
		<route edges="51740 51743"/>
	</vehicle>
	<vehicle depart="0.1" departLane="0" departPos="54.43231247120777" departSpeed="0.058295046" id="315" type="passenger">
		<route edges="51740 51743"/>
	</vehicle>
	<vehicle depart="0.1" departLane="0" departPos="26.66614195566369" departSpeed="0.41655605" id="318" type="passenger">
		<route edges=":29_3 51847"/>
	</vehicle>
	<vehicle depart="0.1" departLane="0" departPos="22.167520609908916" departSpeed="1.1661739" id="321" type="passenger">
		<route edges="51846 51743"/>
	</vehicle>
	<vehicle depart="0.1" departLane="0" departPos="40.99928782081519" departSpeed="0.27521821" id="326" type="passenger">
		<route edges="51740 51743"/>
	</vehicle>
	<vehicle depart="0.1" departLane="0" departPos="11.240919294295773" departSpeed="9.8506057" id="344" type="passenger">
		<route edges=":29_1 51739"/>
	</vehicle>
	<vehicle depart="0.1" departLane="0" departPos="55.489933850072745" departSpeed="6.7541139" id="348" type="passenger">
		<route edges="51742 51739"/>
	</vehicle>
	<vehicle depart="0.1" departLane="0" departPos="35.446872412621275" departSpeed="7.9437117" id="353" type="passenger">
		<route edges="51742 51739"/>
	</vehicle>
	<vehicle depart="0.1" departLane="0" departPos="13.54989603074366" departSpeed="5.4519753" id="355" type="passenger">
		<route edges="51742 51739"/>
	</vehicle>
</routes>
