<!-- generated on 2020-12-18 15:55:02.269335 by ipykernel_launcher.py v1_2_0+5214-53edc58fcd
-->
<edges>
	<edge from="1" function="normal" id="6" length="12.021154099415888" numLanes="6" priority="1" speed="36.11111111111111" spreadType="center" to="2">
		<lane allow="moped bicycle pedestrian custom1 trailer evehicle rail_urban ship private truck vip custom2 authority delivery rail_electric taxi tram army hov coach motorcycle passenger bus rail emergency" index="0" length="12.021154099415888" shape="-34.17225,29.90755 -31.037999999999997,27.18545 -25.1047,22.005000000000003" speed="36.11111111111111" width="3.802234840195962"/>
		<lane allow="moped bicycle pedestrian custom1 trailer evehicle rail_urban ship private vip custom2 authority delivery rail_electric taxi tram army hov coach motorcycle passenger rail emergency" index="1" length="12.021154099415888" shape="-31.695149999999998,32.74265 -30.13445,31.342399999999998 -28.58605,30.00295 -22.6479,24.838949999999997 -22.63845,24.8307" speed="36.11111111111111" width="3.6434994963633507"/>
		<lane allow="moped bicycle pedestrian custom1 trailer evehicle rail_urban ship private truck vip custom2 authority delivery rail_electric taxi tram army hov coach motorcycle passenger rail emergency" index="2" length="12.021154099415888" shape="-29.38495,35.3867 -27.87425,34.02265 -21.7613,28.6949 -20.3631,27.4377" speed="36.11111111111111" width="3.250550685653123"/>
		<lane allow="moped bicycle pedestrian custom1 trailer evehicle rail_urban ship private truck vip custom2 authority delivery rail_electric taxi tram army hov coach motorcycle passenger bus rail emergency" index="3" length="12.021154099415888" shape="-27.161900000000003,37.930949999999996 -24.9384,36.01205 -21.999699999999997,33.356300000000005 -19.560200000000002,31.21345 -18.1687,29.95195" speed="36.11111111111111" width="3.3706233503611718"/>
		<lane allow="moped bicycle pedestrian custom1 trailer evehicle rail_urban ship private truck vip custom2 authority delivery rail_electric taxi tram army hov coach motorcycle passenger rail emergency" index="4" length="12.021154099415888" shape="-24.954250000000002,40.4577 -22.72735,38.53975 -22.643050000000002,38.4636 -19.78905,35.80445 -19.67085,35.6982 -15.9516,32.4922" speed="36.11111111111111" width="3.211875866218992"/>
		<lane allow="moped bicycle pedestrian custom1 trailer evehicle rail_urban ship private truck vip custom2 authority delivery rail_electric taxi tram army hov coach motorcycle passenger bus rail emergency" index="5" length="12.021154099415888" shape="-22.7361,42.99635 -20.359,40.91945 -20.0653,40.65435 -17.4142,38.18455 -17.05145,37.8658 -13.7161,35.05355" speed="36.11111111111111" width="3.4793965583129465"/>
	</edge>
	<edge from="2" function="normal" id="124" length="212.3444861747039" numLanes="6" priority="1" speed="36.11111111111111" spreadType="center" to="3">
		<lane allow="moped bicycle pedestrian custom1 trailer evehicle rail_urban ship private vip custom2 authority delivery rail_electric taxi tram army hov coach motorcycle passenger rail emergency" index="0" length="212.3444861747039" shape="-25.1047,22.005000000000003 -22.94045,20.15 -22.21705,19.50415 -19.5472,17.19015 -18.82385,16.5443 -16.12175,14.166 -15.398399999999999,13.5201 -12.681000000000001,11.1315 -11.957650000000001,10.48565 -9.2878,8.1716 -8.5644,7.52575 -7.83745,6.89455 -5.83395,5.15215 -5.11105,4.5057 -2.4276,2.14495 -1.7046999999999999,1.4985 1.04745,-0.8998999999999999 1.77035,-1.5463500000000001 4.3420499999999995,-3.7723 5.0649,-4.418749999999999 7.78175,-6.750299999999999 8.50465,-7.3967 11.34855,-9.9077 12.07145,-10.55415 14.7305,-12.90715 15.4534,-13.5536 18.26645,-15.975299999999999 18.98935,-16.6217 21.61965,-18.9237 22.3425,-19.570149999999998 25.0504,-21.9387 25.69495,-22.5156 25.7768,-22.58795 28.601950000000002,-24.969549999999998 29.32555,-25.615099999999998 31.94635,-27.9719 32.67,-28.6174 35.340900000000005,-30.93045 36.064499999999995,-31.576 38.85735,-34.0239 39.58095,-34.66945 42.0912,-36.832449999999994 42.81485,-37.477999999999994 45.58985,-39.90335 46.31345,-40.5489 49.01005,-42.81045 49.7337,-43.456050000000005 52.475300000000004,-45.91055 53.198949999999996,-46.5561 53.857150000000004,-47.12715 55.933049999999994,-48.929050000000004 56.656549999999996,-49.574749999999995 59.308350000000004,-51.8601 60.031850000000006,-52.505849999999995 62.72665,-54.827200000000005 63.450100000000006,-55.4729 67.95425,-59.379000000000005 68.67775,-60.02475 71.54984999999999,-62.4816 72.27335,-63.127300000000005 75.15315000000001,-65.60645 75.87665,-66.25215 78.7011,-68.72855000000001 79.4246,-69.37425 82.09495,-71.6879 82.81845000000001,-72.33359999999999 85.40074999999999,-74.55685 85.6229,-74.75264999999999 86.33,-75.41615 86.82605000000001,-75.87525 89.1361,-77.9186 89.85595,-78.5686 92.7199,-81.12355 93.43975,-81.7735 96.2852,-84.30085 97.00505000000001,-84.9508 99.75765,-87.37015 100.47749999999999,-88.02015 102.36269999999999,-89.6498 103.2079,-90.38305 104.9213,-91.924 111.1536,-97.21635 113.74185,-99.42345 114.4693,-100.06434999999999 117.29135,-102.50210000000001 118.0187,-103.143 118.66655,-103.69810000000001 120.71209999999999,-105.49355 121.43195,-106.14349999999999 124.0967,-108.49430000000001 124.81665,-109.14415 127.6016,-111.5934 128.32150000000001,-112.2433 131.12290000000002,-114.67775 131.84285,-115.32765 134.6719,-117.8441" speed="36.11111111111111" width="3.6814288122955747"/>
		<lane allow="moped bicycle pedestrian custom1 trailer evehicle rail_urban ship private vip custom2 authority delivery rail_electric taxi tram army hov coach motorcycle passenger rail emergency" index="1" length="212.3444861747039" shape="-22.63845,24.8307 -22.032600000000002,24.313850000000002 -20.45205,22.91085 -19.739150000000002,22.2533 -19.1,21.68285 -17.25525,20.15675 -16.60065,19.602 -16.4877,19.5109 -15.895399999999999,19.012050000000002 -15.71395,18.847 -13.620650000000001,16.9533 -13.59915,16.93355 -12.900849999999998,16.2893 -12.8079,16.2057 -10.2445,13.95175 -9.5636,13.34385 -9.4941,13.2836 -6.835850000000001,10.9774 -6.1707,10.3834 -6.1072500000000005,10.3281 -5.636150000000001,9.9177 -3.36885,7.8819 -2.7293000000000003,7.29205 -2.70505,7.27065 3.4299,1.9926 4.10455,1.4024 4.2027,1.31895 5.1107000000000005,0.5459499999999999 5.1754,0.486 6.8437,-1.0035500000000002 7.55655,-1.66115 8.07305,-2.11515 10.2226,-3.9491 10.87765,-4.53135 10.92945,-4.576700000000001 13.76175,-7.06345 14.45215,-7.6767 14.5018,-7.7201 16.113500000000002,-9.1385 17.2217,-10.1506 17.934649999999998,-10.8082 19.088050000000003,-11.829699999999999 20.68365,-13.18905 21.327849999999998,-13.75905 21.397399999999998,-13.81925 24.026200000000003,-16.0976 24.694699999999997,-16.688650000000003 24.7661,-16.7504 27.087400000000002,-18.761200000000002 27.10845,-18.779600000000002 27.4996,-19.1202 28.23005,-19.7706 30.168300000000002,-21.400599999999997 31.0604,-22.15535 31.727700000000002,-22.751649999999998 34.3234,-25.0893 34.373099999999994,-25.13325 35.06785,-25.7551 35.13775,-25.8157 37.79455,-28.1219 37.94125,-28.25245 38.4474,-28.7041 38.50445,-28.75405 40.9999,-30.93865 41.326,-31.228 42.0458,-31.878 44.542500000000004,-34.0558 45.2342,-34.68044999999999 45.27625,-34.7175 48.0225,-37.147850000000005 48.7423,-37.79785 49.69235,-38.6014 51.416700000000006,-40.04675 52.0775,-40.63525 52.537,-41.04495 54.782,-43.036 55.5171,-43.68535 55.60035,-43.7568 58.33945,-46.11065 58.99015,-46.68475 59.083,-46.76405 60.508700000000005,-47.98195 61.75385,-49.0529 62.410849999999996,-49.638000000000005 62.491749999999996,-49.7076 63.5027,-50.578500000000005 65.183,-52.04095 65.9034,-52.6903 70.38795,-56.6181 71.10835,-57.26745 71.1893,-57.3363 73.9667,-59.707499999999996 74.07955000000001,-59.8072 74.5284,-60.20035 74.63980000000001,-60.2938 77.5317,-62.7162 77.86085,-62.99785 77.94995,-63.07725000000001 78.26405,-63.354749999999996 78.33269999999999,-63.41405 80.99865,-65.74745 81.18674999999999,-65.91445 81.9065,-66.56450000000001 84.5629,-68.89355 85.28265,-69.5436 86.4127,-70.5273 88.13945000000001,-72.01075 88.79894999999999,-72.59815 88.856,-72.648 89.37925,-73.10565 91.64495,-75.1072 92.33394999999999,-75.72845 92.3656,-75.75659999999999 95.2309,-78.30969999999999 95.91985,-78.93084999999999 95.95734999999999,-78.96414999999999 98.43435,-81.16165000000001 98.763,-81.44964999999999 99.44309999999999,-82.05505 99.51114999999999,-82.11410000000001 101.43135,-83.7803 102.2741,-84.50874999999999 102.92660000000001,-85.0882 103.0233,-85.1701 105.8134,-87.54294999999999 106.46635,-88.1228 106.5146,-88.16495 109.0959,-90.43705 109.23134999999999,-90.55675 109.9317,-91.18015 110.03004999999999,-91.26315 112.1997,-93.10785 112.90425,-93.7114 113.58065,-94.3181 113.64705000000001,-94.37555 116.19460000000001,-96.5888 116.87145000000001,-97.1959 116.92,-97.23855 119.7171,-99.6992 119.8714,-99.8373 120.3677,-100.28025 120.43575,-100.3392 122.94125,-102.51089999999999 123.18305000000001,-102.7231 123.87155,-103.34375 123.91785,-103.3845 126.5697,-105.72155000000001 127.2901,-106.37095 130.07675,-108.8183 130.7971,-109.46770000000001 131.08069999999998,-109.71305000000001 133.59805,-111.87155 133.97005000000001,-112.20215 134.26024999999998,-112.46135 134.31025,-112.5051 137.18394999999998,-115.02805000000001 137.18555,-115.02945" speed="36.11111111111111" width="3.448898331351623"/>
		<lane allow="moped bicycle pedestrian custom1 trailer evehicle rail_urban ship private vip custom2 authority delivery rail_electric taxi tram army hov coach motorcycle passenger rail emergency" index="2" length="212.3444861747039" shape="-20.3631,27.4377 -19.75715,26.8916 -18.87485,26.0688 -16.99875,24.40085 -16.835900000000002,24.267899999999997 -13.46425,21.4976 -10.94,19.259500000000003 -10.8331,19.16085 -10.4634,18.8203 -10.40705,18.77055 -7.8401499999999995,16.45285 -3.38085,12.604299999999999 -0.51115,10.04705 -0.3932,9.946349999999999 0.24460000000000004,9.402000000000001 0.32095,9.3316 3.21815,6.767799999999999 7.40305,3.2133 10.24785,0.6694 10.34525,0.58525 11.3507,-0.2843 14.30105,-2.9356 18.409100000000002,-6.45875 21.268549999999998,-9.003 21.380499999999998,-9.09885 22.494149999999998,-10.0537 22.55325,-10.1084 25.4509,-12.6989 29.416600000000003,-16.1686 32.39045,-18.7869 33.51345,-19.7788 36.491550000000004,-22.37625 40.3063,-25.706049999999998 43.30205,-28.312199999999997 44.409549999999996,-29.28895 47.37945,-31.90675 51.90535,-35.91005 51.93585,-35.9366 54.91735,-38.537800000000004 55.50995,-39.05005 58.5116,-41.636449999999996 62.796099999999996,-45.3221 65.78455,-47.9155 73.4315,-54.63205 73.46435,-54.66055 76.45915,-57.2599 77.99875,-58.55970000000001 80.31135,-60.5175 80.9813,-61.09985 83.30494999999999,-63.1516 88.6608,-67.94685000000001 88.70195,-67.98295 91.6323,-70.53025 91.6472,-70.5435 99.50025,-77.5427 100.65915000000001,-78.56285 100.68915,-78.5889 102.499,-80.16255 103.61115,-81.10945 111.16460000000001,-87.5187 111.21225,-87.5599 111.4982,-87.80709999999999 114.1999,-90.1556 114.525,-90.4473 121.8317,-97.029 122.16525,-97.3211 122.1825,-97.33605 124.82965,-99.6373 125.1868,-99.95205 132.9919,-106.91035 133.24214999999998,-107.13075 133.2714,-107.1562 135.99535,-109.52435 136.22095000000002,-109.71835 139.4504,-112.49340000000001" speed="36.11111111111111" width="3.216879682238673"/>
		<lane allow="moped bicycle pedestrian custom1 trailer evehicle rail_urban ship private truck vip custom2 authority delivery rail_electric taxi tram army hov coach motorcycle passenger rail emergency" index="3" length="212.3444861747039" shape="-18.1687,29.95195 -16.698,28.6189 -16.597749999999998,28.53265 -13.72145,26.048000000000002 -10.7593,23.4185 -8.62395,21.6139 -5.7873,19.094700000000003 -5.668749999999999,18.9939 -2.65595,16.43225 0.30194999999999994,13.79555 2.4439,11.9459 5.3050999999999995,9.3611 5.395899999999999,9.28245 8.4594,6.62615 11.41245,3.9855 13.45435,2.26275 16.31715,-0.25525 16.44925,-0.36615 19.58495,-3.0046 22.54515,-5.6392500000000005 24.70975,-7.499650000000001 27.5663,-10.0722 27.6373,-10.134599999999999 30.81715,-12.936499999999999 33.7452,-15.60655 35.62845,-17.2582 35.66545,-17.29025 38.655649999999994,-19.879550000000002 41.8764,-22.67 41.8876,-22.6798 44.8781,-25.2813 46.65035,-26.8438 49.62355,-29.462699999999998 52.8189,-32.28715 55.80485,-34.8919 57.6875,-36.5577 60.65945,-39.177949999999996 64.05865,-42.1696 67.0513,-44.76665 75.11935,-51.72565 75.1318,-51.7365 78.12245,-54.33175 80.09355,-56.02785 83.0907,-58.61095 86.39015,-61.498400000000004 86.43,-61.5338 89.38075,-64.1383 89.4117,-64.1659 90.8931,-65.4858 93.8717,-68.09935 97.39125,-71.22704999999999 100.34105,-73.8241 100.3777,-73.85695000000001 101.7217,-75.05955 104.69085000000001,-77.68385 108.17975,-80.70125 111.1969,-83.26885 113.3455,-85.09360000000001 116.33375000000001,-87.6854 119.87955,-90.8489 122.83485,-93.4922 123.9307,-94.47155000000001 124.00415000000001,-94.5353 126.9937,-97.1308 130.725,-100.4103 133.7029,-103.03315 133.7299,-103.05715000000001 135.22865000000002,-104.3874 138.20905,-106.99875 141.67585,-110.0015" speed="36.11111111111111" width="3.049599213011436"/>
		<lane allow="moped bicycle pedestrian custom1 trailer evehicle rail_urban ship private vip custom2 authority delivery rail_electric taxi tram army hov coach motorcycle passenger rail emergency" index="4" length="212.3444861747039" shape="-15.9516,32.4922 -11.64285,28.77815 -11.45035,28.60275 -8.77835,26.1111 -8.7172,26.05405 -8.5906,25.946150000000003 -0.45039999999999997,19.006500000000003 -0.28150000000000003,18.853650000000002 2.50045,16.263199999999998 2.6618500000000003,16.11845 10.6709,9.2414 10.74405,9.1741 13.52805,6.577999999999999 21.77735,-0.47059999999999996 21.898200000000003,-0.5809 24.71215,-3.2030000000000003 24.842100000000002,-3.3187499999999996 32.99275,-10.3171 33.10975,-10.42385 35.84865,-12.9779 43.8186,-19.8947 44.10015,-20.13845 46.80545,-22.490099999999998 47.09335,-22.741 54.874300000000005,-29.6114 54.99835,-29.72085 55.0317,-29.749850000000002 57.908500000000004,-32.25105 58.0375,-32.36475 66.14295,-39.60065 66.1748,-39.6291 66.2251,-39.6729 69.15525,-42.22045 69.2166,-42.2738 77.2865,-49.2517 77.42410000000001,-49.371399999999994 80.27590000000001,-51.850449999999995 80.42595,-51.9797 88.5463,-58.97265 88.6482,-59.06055 91.5265,-61.5626 91.6516,-61.672700000000006 99.619,-68.741 102.5959,-71.32885 110.2954,-78.16075000000001 110.33015,-78.19115 110.54055,-78.37514999999999 113.31280000000001,-80.785 113.53685,-80.97935 121.91935000000001,-88.17325 121.9431,-88.1939 122.18975,-88.40754999999999 124.92914999999999,-90.7889 125.2053,-91.03435 132.84305,-97.79585 132.98714999999999,-97.92089999999999 135.8312,-100.39314999999999 135.9776,-100.52045000000001 143.9247,-107.48335" speed="36.11111111111111" width="3.2654832184532796"/>
		<lane allow="moped bicycle pedestrian custom1 trailer evehicle rail_urban ship private vip custom2 authority delivery rail_electric taxi tram army hov coach motorcycle passenger rail emergency" index="5" length="212.3444861747039" shape="-13.7161,35.05355 -9.38305,31.4 -9.15115,31.19725 -9.02615,31.081 -6.4149,28.651600000000002 -6.0625,28.33815 2.0078,21.41005 2.25,21.1953 2.3532,21.0992 4.96355,18.66885 5.32895,18.34785 12.96595,11.91355 13.19745,11.711300000000001 13.323350000000001,11.5942 15.934650000000001,9.16485 16.27035,8.8621 24.16715,1.9268 24.4223,1.69695 24.49765,1.62675 27.1071,-0.80455 27.466900000000003,-1.12195 35.23395,-7.7065 35.46895,-7.912850000000001 35.58735,-8.0231 38.1984,-10.45275 38.5388,-10.75855 46.0572,-17.31555 46.4456,-17.653750000000002 49.04525,-19.91355 49.426199999999994,-20.2455 57.19865,-27.034750000000003 57.585899999999995,-27.372149999999998 60.18555,-29.63205 60.5257,-29.9313 60.557900000000004,-29.95995 68.4657,-37.00725 68.8383,-37.335049999999995 71.43799999999999,-39.59495 71.82560000000001,-39.9321 79.68385,-46.7739 80.0735,-47.112849999999995 82.67314999999999,-49.372749999999996 83.0652,-49.71325 90.76570000000001,-56.39595 91.15555,-56.73455 93.75739999999999,-58.99625 94.10355,-59.300399999999996 94.13194999999999,-59.32565 101.8758,-66.2063 102.25059999999999,-66.53555 104.85024999999999,-68.79545 105.22505,-69.1225 105.23525000000001,-69.13145 112.8161,-75.77335 113.2011,-76.10935 115.80080000000001,-78.36914999999999 116.20725,-78.71865 124.2196,-85.53765 124.5984,-85.8633 124.6258,-85.88714999999999 127.22559999999999,-88.14685 127.53435,-88.42025 127.58635,-88.46735000000001 135.0901,-95.2593 135.45155,-95.5795 138.0512,-97.83935 138.442,-98.17904999999999 146.20635,-104.92845" speed="36.11111111111111" width="3.479158429850529"/>
	</edge>
	<edge from="3" function="normal" id="7" length="78.7581914815308" numLanes="5" priority="1" speed="36.11111111111111" spreadType="center" to="4">
		<lane allow="moped bicycle pedestrian custom1 trailer evehicle rail_urban ship private truck vip custom2 authority delivery rail_electric taxi tram army hov coach motorcycle passenger bus rail emergency" index="0" length="78.7581914815308" shape="137.18555,-115.02945 141.89805,-119.14355 144.8828,-121.749 144.8946,-121.75935000000001 153.01569999999998,-128.88205 156.00074999999998,-131.48775 163.95614999999998,-138.4948 165.24585,-139.62065 166.914,-141.08175 174.9814,-148.14005 177.965,-150.7536 179.5328,-152.1292 179.55445,-152.14800000000002 185.9612,-157.71485 188.9544,-160.3113 192.11565000000002,-163.05785 196.5093,-166.90175" speed="36.11111111111111" width="3.507394384724955"/>
		<lane allow="moped bicycle pedestrian custom1 trailer evehicle rail_urban ship private vip custom2 authority delivery rail_electric taxi tram army hov coach motorcycle passenger rail emergency" index="1" length="78.7581914815308" shape="139.4504,-112.49340000000001 144.13240000000002,-116.51735 144.2473,-116.61595 144.27625,-116.6411 147.1673,-119.154 147.24880000000002,-119.2252 155.24714999999998,-126.2301 155.28295,-126.26135 155.2946,-126.2715 158.24885,-128.83965 158.29065,-128.87619999999998 166.23325,-135.8746 166.24939999999998,-135.88864999999998 166.3347,-135.9632 169.2293,-138.47944999999999 169.328,-138.56515 177.32435,-145.5181 177.67545,-145.82375000000002 180.3127,-148.1163 180.6636,-148.42175 188.2534,-155.09755 188.34775,-155.18025 191.231,-157.6866 191.33235000000002,-157.7749 198.88580000000002,-164.2208" speed="36.11111111111111" width="3.292579517642655"/>
		<lane allow="moped bicycle pedestrian custom1 trailer evehicle rail_urban ship private vip custom2 authority delivery rail_electric taxi tram army hov coach motorcycle passenger rail emergency" index="2" length="78.7581914815308" shape="141.67585,-110.0015 141.9785,-110.26304999999999 144.9836,-112.8454 146.4799,-114.16130000000001 149.441,-116.7931 153.07215000000002,-120.02875 156.05295,-122.6269 157.3299,-123.72120000000001 160.34755,-126.29925 164.04919999999998,-129.47514999999999 164.0972,-129.5171 167.08815,-132.128 168.56345,-133.43189999999998 171.53820000000002,-136.0491 175.47424999999998,-139.517 178.45929999999998,-142.11565000000002 179.84055,-143.3166 182.83620000000002,-145.9173 186.19635,-148.86395 189.17649999999998,-151.4808 190.49885,-152.6399 190.52634999999998,-152.66375 193.52185,-155.2628 197.6606,-158.78199999999998 200.6762,-161.35145 201.107,-161.71505000000002" speed="36.11111111111111" width="3.088246003802152"/>
		<lane allow="moped bicycle pedestrian custom1 trailer evehicle rail_urban ship private vip custom2 authority delivery rail_electric taxi tram army hov coach motorcycle passenger rail emergency" index="3" length="78.7581914815308" shape="143.9247,-107.48335 144.1572,-107.68715 144.1754,-107.70295 144.2749,-107.78960000000001 147.16745,-110.30404999999999 154.998,-117.37025 155.16314999999997,-117.51769999999999 155.2179,-117.56545 158.03165,-120.01245 158.17005,-120.1317 158.2058,-120.16185 166.28654999999998,-126.9962 166.409,-127.1015 166.43425,-127.1234 169.29025000000001,-129.6059 169.37900000000002,-129.68385 169.3997,-129.7021 177.4656,-136.8304 177.6319,-136.9769 177.66215,-137.0033 180.4897,-139.46155 180.66545000000002,-139.61605 188.41705000000002,-146.41735 188.62955,-146.6039 191.39335,-149.00645 191.6227,-149.2054 199.77409999999998,-156.18540000000002 199.7973,-156.20544999999998 199.82389999999998,-156.22840000000002 202.7908,-158.80734999999999 202.83474999999999,-158.846 203.2954,-159.24625" speed="36.11111111111111" width="3.3288611506039"/>
		<lane allow="moped bicycle pedestrian custom1 trailer evehicle rail_urban ship private vip custom2 authority delivery rail_electric taxi tram army hov coach motorcycle passenger rail emergency" index="4" length="78.7581914815308" shape="146.20635,-104.92845 146.5245,-105.20505 146.9153,-105.54475 149.51495,-107.80455 149.84314999999998,-108.0941 149.88285000000002,-108.1297 157.33785,-114.8125 157.70625,-115.13745 160.3059,-117.39734999999999 160.7116,-117.74635 168.66944999999998,-124.52590000000001 169.0488,-124.85225 169.0749,-124.87495 171.6747,-127.13465 172.04725000000002,-127.46000000000001 172.05894999999998,-127.47025000000001 179.78379999999999,-134.2461 180.168,-134.58155 182.76765,-136.8414 183.11545,-137.14679999999998 183.1428,-137.1711 190.88115,-144.04155 191.25655,-144.37125 193.8562,-146.63105000000002 194.26635,-146.9828 202.05565,-153.579 202.4316,-153.90134999999998 202.4654,-153.93075 205.0653,-156.19035 205.41660000000002,-156.49865 205.44185,-156.52105 205.59265,-156.6547" speed="36.11111111111111" width="3.480624790177758"/>
	</edge>
	<edge from="3" function="normal" id="29" length="78.94336073399911" numLanes="1" priority="1" speed="36.11111111111111" spreadType="center" to="5">
		<lane allow="moped bicycle pedestrian custom1 trailer evehicle rail_urban ship private truck vip custom2 authority delivery rail_electric taxi tram army hov coach motorcycle passenger bus rail emergency" index="0" length="78.94336073399911" shape="134.6719,-117.8441 140.0734,-122.7193 153.04874999999998,-134.5922 160.1993,-141.4161 161.92125,-143.14094999999998 176.629,-158.0421 183.8912,-165.5282 191.05355,-173.0566" speed="36.11111111111111" width="3.963272370150719"/>
	</edge>
</edges>
