<?xml version="1.0" encoding="UTF-8"?>

<!-- generated on Fri Dec 18 15:55:02 2020 by Eclipse SUMO netconvert Version 1.8.0
<configuration xmlns:xsi="http://www.w3.org/2001/XMLSchema-instance" xsi:noNamespaceSchemaLocation="http://sumo.dlr.de/xsd/netconvertConfiguration.xsd">

    <input>
        <node-files value="./converted_scenarios/NGSIM/US101/USA_US101-23_1_I-1-1/nodes.net.xml"/>
        <edge-files value="./converted_scenarios/NGSIM/US101/USA_US101-23_1_I-1-1/edges.net.xml"/>
        <connection-files value="./converted_scenarios/NGSIM/US101/USA_US101-23_1_I-1-1/_connections.net.xml"/>
        <tllogic-files value="./converted_scenarios/NGSIM/US101/USA_US101-23_1_I-1-1/_tll.net.xml"/>
    </input>

    <output>
        <output-file value="./converted_scenarios/NGSIM/US101/USA_US101-23_1_I-1-1/USA_US101-23_1_I-1-1.net.xml"/>
    </output>

    <processing>
        <plain.extend-edge-shape value="true"/>
        <geometry.remove.keep-edges.explicit value="true"/>
        <geometry.avoid-overlap value="true"/>
        <offset.disable-normalization value="true"/>
    </processing>

    <junctions>
        <no-turnarounds value="true"/>
        <junctions.internal-link-detail value="20"/>
    </junctions>

    <report>
        <aggregate-warnings value="5"/>
    </report>

    <random_number>
        <seed value="1234"/>
    </random_number>

</configuration>
-->

<net version="1.6" junctionCornerDetail="5" junctionLinkDetail="20" limitTurnSpeed="5.50" xmlns:xsi="http://www.w3.org/2001/XMLSchema-instance" xsi:noNamespaceSchemaLocation="http://sumo.dlr.de/xsd/net_file.xsd">

    <location netOffset="0.00,0.00" convBoundary="-28.35,-173.06,201.08,36.57" origBoundary="-34.17,-173.06,205.59,43.00" projParameter="!"/>

    <edge id=":2_0" function="internal">
        <lane id=":2_0_0" index="0" disallow="bus truck rail_fast" speed="36.11" length="3.24" width="3.68" shape="-26.36,23.10 -23.91,20.98"/>
        <lane id=":2_0_1" index="1" disallow="bus truck rail_fast" speed="36.11" length="3.24" width="3.45" shape="-23.90,25.93 -21.45,23.80"/>
        <lane id=":2_0_2" index="2" disallow="bus truck rail_fast" speed="36.11" length="3.24" width="3.22" shape="-21.61,28.56 -19.21,26.38"/>
        <lane id=":2_0_3" index="3" disallow="bus rail_fast" speed="36.11" length="3.24" width="3.05" shape="-19.41,31.08 -17.02,28.91"/>
        <lane id=":2_0_4" index="4" disallow="bus truck rail_fast" speed="36.11" length="3.24" width="3.27" shape="-17.23,33.59 -14.78,31.48"/>
        <lane id=":2_0_5" index="5" disallow="bus truck rail_fast" speed="36.11" length="3.24" width="3.48" shape="-15.01,36.14 -12.54,34.06"/>
    </edge>
    <edge id=":3_0" function="internal">
        <lane id=":3_0_0" index="0" disallow="bus truck rail_fast" speed="36.11" length="13.52" width="3.96" shape="123.92,-108.34 134.06,-117.29"/>
    </edge>
    <edge id=":3_1" function="internal">
        <lane id=":3_1_0" index="0" disallow="bus truck rail_fast" speed="36.11" length="13.53" width="3.51" shape="126.40,-105.57 136.57,-114.49"/>
        <lane id=":3_1_1" index="1" disallow="bus truck rail_fast" speed="36.11" length="13.53" width="3.29" shape="128.65,-103.04 138.82,-111.96"/>
        <lane id=":3_1_2" index="2" disallow="bus truck rail_fast" speed="36.11" length="13.53" width="3.09" shape="130.87,-100.54 141.04,-109.46"/>
        <lane id=":3_1_3" index="3" disallow="bus truck rail_fast" speed="36.11" length="13.53" width="3.33" shape="133.11,-98.03 143.29,-106.93"/>
        <lane id=":3_1_4" index="4" disallow="bus truck rail_fast" speed="36.11" length="13.53" width="3.48" shape="135.36,-95.50 145.56,-104.37"/>
    </edge>

    <edge id="124" from="2" to="3" priority="1" spreadType="center" length="212.34">
        <lane id="124_0" index="0" disallow="bus truck rail_fast" speed="36.11" length="212.34" width="3.68" customShape="1" shape="-23.91,20.98 -22.94,20.15 -22.22,19.50 -19.55,17.19 -18.82,16.54 -16.12,14.17 -15.40,13.52 -12.68,11.13 -11.96,10.49 -9.29,8.17 -8.56,7.53 -7.84,6.89 -5.83,5.15 -5.11,4.51 -2.43,2.14 -1.70,1.50 1.05,-0.90 1.77,-1.55 4.34,-3.77 5.06,-4.42 7.78,-6.75 8.50,-7.40 11.35,-9.91 12.07,-10.55 14.73,-12.91 15.45,-13.55 18.27,-15.98 18.99,-16.62 21.62,-18.92 22.34,-19.57 25.05,-21.94 25.69,-22.52 25.78,-22.59 28.60,-24.97 29.33,-25.62 31.95,-27.97 32.67,-28.62 35.34,-30.93 36.06,-31.58 38.86,-34.02 39.58,-34.67 42.09,-36.83 42.81,-37.48 45.59,-39.90 46.31,-40.55 49.01,-42.81 49.73,-43.46 52.48,-45.91 53.20,-46.56 53.86,-47.13 55.93,-48.93 56.66,-49.57 59.31,-51.86 60.03,-52.51 62.73,-54.83 63.45,-55.47 67.95,-59.38 68.68,-60.02 71.55,-62.48 72.27,-63.13 75.15,-65.61 75.88,-66.25 78.70,-68.73 79.42,-69.37 82.09,-71.69 82.82,-72.33 85.40,-74.56 85.62,-74.75 86.33,-75.42 86.83,-75.88 89.14,-77.92 89.86,-78.57 92.72,-81.12 93.44,-81.77 96.29,-84.30 97.01,-84.95 99.76,-87.37 100.48,-88.02 102.36,-89.65 103.21,-90.38 104.92,-91.92 111.15,-97.22 113.74,-99.42 114.47,-100.06 117.29,-102.50 118.02,-103.14 118.67,-103.70 120.71,-105.49 121.43,-106.14 123.92,-108.34"/>
        <lane id="124_1" index="1" disallow="bus truck rail_fast" speed="36.11" length="212.34" width="3.45" customShape="1" shape="-21.45,23.80 -20.45,22.91 -19.74,22.25 -19.10,21.68 -17.26,20.16 -16.60,19.60 -16.49,19.51 -15.90,19.01 -15.71,18.85 -13.62,16.95 -12.90,16.29 -12.81,16.21 -10.24,13.95 -9.56,13.34 -6.84,10.98 -6.17,10.38 -5.64,9.92 -3.37,7.88 -2.73,7.29 3.43,1.99 4.10,1.40 4.20,1.32 5.11,0.55 6.84,-1.00 7.56,-1.66 8.07,-2.12 10.22,-3.95 10.88,-4.53 13.76,-7.06 14.45,-7.68 16.11,-9.14 17.22,-10.15 17.93,-10.81 19.09,-11.83 20.68,-13.19 21.33,-13.76 24.03,-16.10 24.69,-16.69 27.09,-18.76 27.50,-19.12 28.23,-19.77 30.17,-21.40 31.06,-22.16 31.73,-22.75 34.32,-25.09 35.07,-25.76 37.79,-28.12 37.94,-28.25 38.45,-28.70 41.00,-30.94 41.33,-31.23 42.05,-31.88 44.54,-34.06 45.23,-34.68 48.02,-37.15 48.74,-37.80 49.69,-38.60 51.42,-40.05 52.08,-40.64 52.54,-41.04 54.78,-43.04 55.52,-43.69 55.60,-43.76 58.34,-46.11 58.99,-46.68 59.08,-46.76 60.51,-47.98 61.75,-49.05 62.41,-49.64 62.49,-49.71 63.50,-50.58 65.18,-52.04 65.90,-52.69 70.39,-56.62 71.11,-57.27 71.19,-57.34 73.97,-59.71 74.08,-59.81 74.53,-60.20 74.64,-60.29 77.53,-62.72 77.86,-63.00 77.95,-63.08 78.26,-63.35 81.00,-65.75 81.19,-65.91 81.91,-66.56 84.56,-68.89 85.28,-69.54 86.41,-70.53 88.14,-72.01 88.80,-72.60 89.38,-73.11 91.64,-75.11 92.33,-75.73 95.23,-78.31 95.92,-78.93 98.43,-81.16 98.76,-81.45 99.44,-82.06 101.43,-83.78 102.27,-84.51 102.93,-85.09 103.02,-85.17 105.81,-87.54 106.47,-88.12 109.10,-90.44 109.23,-90.56 109.93,-91.18 110.03,-91.26 112.20,-93.11 112.90,-93.71 113.58,-94.32 116.19,-96.59 116.87,-97.20 119.72,-99.70 119.87,-99.84 120.37,-100.28 122.94,-102.51 123.18,-102.72 123.87,-103.34 126.40,-105.57"/>
        <lane id="124_2" index="2" disallow="bus truck rail_fast" speed="36.11" length="212.34" width="3.22" customShape="1" shape="-19.21,26.38 -18.87,26.07 -17.00,24.40 -16.84,24.27 -13.46,21.50 -10.94,19.26 -10.83,19.16 -10.46,18.82 -7.84,16.45 -3.38,12.60 -0.51,10.05 -0.39,9.95 0.24,9.40 0.32,9.33 3.22,6.77 7.40,3.21 10.25,0.67 10.35,0.59 11.35,-0.28 14.30,-2.94 18.41,-6.46 21.27,-9.00 21.38,-9.10 22.49,-10.05 25.45,-12.70 29.42,-16.17 32.39,-18.79 33.51,-19.78 36.49,-22.38 40.31,-25.71 43.30,-28.31 44.41,-29.29 47.38,-31.91 51.91,-35.91 54.92,-38.54 55.51,-39.05 58.51,-41.64 62.80,-45.32 65.78,-47.92 73.43,-54.63 76.46,-57.26 78.00,-58.56 80.31,-60.52 80.98,-61.10 83.30,-63.15 88.66,-67.95 91.63,-70.53 99.50,-77.54 100.66,-78.56 102.50,-80.16 103.61,-81.11 111.16,-87.52 111.50,-87.81 114.20,-90.16 114.53,-90.45 121.83,-97.03 122.17,-97.32 124.83,-99.64 125.19,-99.95 128.65,-103.04"/>
        <lane id="124_3" index="3" disallow="bus rail_fast" speed="36.11" length="212.34" width="3.05" customShape="1" shape="-17.02,28.91 -16.70,28.62 -16.60,28.53 -13.72,26.05 -10.76,23.42 -8.62,21.61 -5.79,19.09 -5.67,18.99 -2.66,16.43 0.30,13.80 2.44,11.95 5.31,9.36 5.40,9.28 8.46,6.63 11.41,3.99 13.45,2.26 16.32,-0.26 16.45,-0.37 19.58,-3.00 22.55,-5.64 24.71,-7.50 27.57,-10.07 30.82,-12.94 33.75,-15.61 35.63,-17.26 38.66,-19.88 41.88,-22.67 44.88,-25.28 46.65,-26.84 49.62,-29.46 52.82,-32.29 55.80,-34.89 57.69,-36.56 60.66,-39.18 64.06,-42.17 67.05,-44.77 75.12,-51.73 78.12,-54.33 80.09,-56.03 83.09,-58.61 86.39,-61.50 89.38,-64.14 90.89,-65.49 93.87,-68.10 97.39,-71.23 100.34,-73.82 101.72,-75.06 104.69,-77.68 108.18,-80.70 111.20,-83.27 113.35,-85.09 116.33,-87.69 119.88,-90.85 122.83,-93.49 123.93,-94.47 126.99,-97.13 130.72,-100.41 130.87,-100.54"/>
        <lane id="124_4" index="4" disallow="bus truck rail_fast" speed="36.11" length="212.34" width="3.27" customShape="1" shape="-14.78,31.48 -11.64,28.78 -11.45,28.60 -8.78,26.11 -8.59,25.95 -0.45,19.01 -0.28,18.85 2.50,16.26 2.66,16.12 10.67,9.24 13.53,6.58 21.78,-0.47 21.90,-0.58 24.71,-3.20 24.84,-3.32 32.99,-10.32 33.11,-10.42 35.85,-12.98 43.82,-19.89 44.10,-20.14 46.81,-22.49 47.09,-22.74 54.87,-29.61 55.00,-29.72 57.91,-32.25 58.04,-32.36 66.14,-39.60 66.23,-39.67 69.16,-42.22 77.29,-49.25 77.42,-49.37 80.28,-51.85 80.43,-51.98 88.55,-58.97 88.65,-59.06 91.53,-61.56 91.65,-61.67 99.62,-68.74 102.60,-71.33 110.30,-78.16 110.54,-78.38 113.31,-80.78 113.54,-80.98 121.92,-88.17 122.19,-88.41 124.93,-90.79 125.21,-91.03 132.84,-97.80 132.99,-97.92 133.11,-98.03"/>
        <lane id="124_5" index="5" disallow="bus truck rail_fast" speed="36.11" length="212.34" width="3.48" customShape="1" shape="-12.54,34.06 -9.38,31.40 -9.15,31.20 -9.03,31.08 -6.41,28.65 -6.06,28.34 2.01,21.41 2.25,21.20 2.35,21.10 4.96,18.67 5.33,18.35 12.97,11.91 13.20,11.71 13.32,11.59 15.93,9.16 16.27,8.86 24.17,1.93 24.42,1.70 24.50,1.63 27.11,-0.80 27.47,-1.12 35.23,-7.71 35.47,-7.91 35.59,-8.02 38.20,-10.45 38.54,-10.76 46.06,-17.32 46.45,-17.65 49.05,-19.91 49.43,-20.25 57.20,-27.03 57.59,-27.37 60.19,-29.63 60.53,-29.93 68.47,-37.01 68.84,-37.34 71.44,-39.59 71.83,-39.93 79.68,-46.77 80.07,-47.11 82.67,-49.37 83.07,-49.71 90.77,-56.40 91.16,-56.73 93.76,-59.00 94.10,-59.30 101.88,-66.21 102.25,-66.54 104.85,-68.80 105.23,-69.12 112.82,-75.77 113.20,-76.11 115.80,-78.37 116.21,-78.72 124.22,-85.54 124.60,-85.86 127.23,-88.15 127.53,-88.42 135.09,-95.26 135.36,-95.50"/>
    </edge>
    <edge id="29" from="3" to="5" priority="1" spreadType="center" length="78.94">
        <lane id="29_0" index="0" disallow="rail_fast" speed="36.11" length="78.94" width="3.96" customShape="1" shape="134.06,-117.29 140.07,-122.72 153.05,-134.59 160.20,-141.42 161.92,-143.14 176.63,-158.04 183.89,-165.53 191.05,-173.06"/>
    </edge>
    <edge id="6" from="1" to="2" priority="1" spreadType="center" length="12.02">
        <lane id="6_0" index="0" disallow="rail_fast" speed="36.11" length="12.02" width="3.80" customShape="1" shape="-34.17,29.91 -31.04,27.19 -26.36,23.10"/>
        <lane id="6_1" index="1" disallow="bus truck rail_fast" speed="36.11" length="12.02" width="3.64" customShape="1" shape="-31.70,32.74 -30.13,31.34 -28.59,30.00 -23.90,25.93"/>
        <lane id="6_2" index="2" disallow="bus rail_fast" speed="36.11" length="12.02" width="3.25" customShape="1" shape="-29.38,35.39 -27.87,34.02 -21.76,28.69 -21.61,28.56"/>
        <lane id="6_3" index="3" disallow="rail_fast" speed="36.11" length="12.02" width="3.37" customShape="1" shape="-27.16,37.93 -24.94,36.01 -22.00,33.36 -19.56,31.21 -19.41,31.08"/>
        <lane id="6_4" index="4" disallow="bus rail_fast" speed="36.11" length="12.02" width="3.21" customShape="1" shape="-24.95,40.46 -22.73,38.54 -22.64,38.46 -19.79,35.80 -19.67,35.70 -17.23,33.59"/>
        <lane id="6_5" index="5" disallow="rail_fast" speed="36.11" length="12.02" width="3.48" customShape="1" shape="-22.74,43.00 -20.36,40.92 -20.07,40.65 -17.41,38.18 -17.05,37.87 -15.01,36.14"/>
    </edge>
    <edge id="7" from="3" to="4" priority="1" spreadType="center" length="78.76">
        <lane id="7_0" index="0" disallow="rail_fast" speed="36.11" length="78.76" width="3.51" customShape="1" shape="136.57,-114.49 141.90,-119.14 144.88,-121.75 153.02,-128.88 156.00,-131.49 163.96,-138.49 165.25,-139.62 166.91,-141.08 174.98,-148.14 177.97,-150.75 179.53,-152.13 185.96,-157.71 188.95,-160.31 192.12,-163.06 196.54,-166.93"/>
        <lane id="7_1" index="1" disallow="bus truck rail_fast" speed="36.11" length="78.76" width="3.29" customShape="1" shape="138.82,-111.96 144.13,-116.52 144.25,-116.62 147.17,-119.15 147.25,-119.23 155.25,-126.23 158.25,-128.84 166.23,-135.87 166.33,-135.96 169.23,-138.48 169.33,-138.57 177.32,-145.52 177.68,-145.82 180.31,-148.12 180.66,-148.42 188.25,-155.10 188.35,-155.18 191.23,-157.69 191.33,-157.77 198.90,-164.23"/>
        <lane id="7_2" index="2" disallow="bus truck rail_fast" speed="36.11" length="78.76" width="3.09" customShape="1" shape="141.04,-109.46 141.98,-110.26 144.98,-112.85 146.48,-114.16 149.44,-116.79 153.07,-120.03 156.05,-122.63 157.33,-123.72 160.35,-126.30 164.05,-129.48 167.09,-132.13 168.56,-133.43 171.54,-136.05 175.47,-139.52 178.46,-142.12 179.84,-143.32 182.84,-145.92 186.20,-148.86 189.18,-151.48 190.50,-152.64 193.52,-155.26 197.66,-158.78 200.68,-161.35 201.11,-161.72"/>
        <lane id="7_3" index="3" disallow="bus truck rail_fast" speed="36.11" length="78.76" width="3.33" customShape="1" shape="143.29,-106.93 144.16,-107.69 144.27,-107.79 147.17,-110.30 155.00,-117.37 155.16,-117.52 158.03,-120.01 158.17,-120.13 166.29,-127.00 166.41,-127.10 169.29,-129.61 169.38,-129.68 177.47,-136.83 177.63,-136.98 180.49,-139.46 180.67,-139.62 188.42,-146.42 188.63,-146.60 191.39,-149.01 191.62,-149.21 199.77,-156.19 202.79,-158.81 203.30,-159.25"/>
        <lane id="7_4" index="4" disallow="bus truck rail_fast" speed="36.11" length="78.76" width="3.48" customShape="1" shape="145.56,-104.37 146.52,-105.21 146.92,-105.54 149.51,-107.80 149.84,-108.09 157.34,-114.81 157.71,-115.14 160.31,-117.40 160.71,-117.75 168.67,-124.53 169.05,-124.85 171.67,-127.13 172.05,-127.46 179.78,-134.25 180.17,-134.58 182.77,-136.84 183.12,-137.15 190.88,-144.04 191.26,-144.37 193.86,-146.63 194.27,-146.98 202.06,-153.58 202.43,-153.90 205.07,-156.19 205.42,-156.50 205.59,-156.65"/>
    </edge>

    <junction id="1" type="dead_end" x="-28.35" y="36.57" incLanes="" intLanes="" shape="-21.59,44.31 -35.42,28.48"/>
    <junction id="2" type="priority" x="-19.32" y="28.63" incLanes="6_0 6_1 6_2 6_3 6_4 6_5" intLanes=":2_0_0 :2_0_1 :2_0_2 :2_0_3 :2_0_4 :2_0_5" shape="-11.40,35.37 -25.11,19.59 -27.61,21.67 -13.87,37.46">
        <request index="0" response="000000" foes="000000" cont="0"/>
        <request index="1" response="000000" foes="000000" cont="0"/>
        <request index="2" response="000000" foes="000000" cont="0"/>
        <request index="3" response="000000" foes="000000" cont="0"/>
        <request index="4" response="000000" foes="000000" cont="0"/>
        <request index="5" response="000000" foes="000000" cont="0"/>
    </junction>
    <junction id="3" type="priority" x="140.52" y="-111.30" incLanes="124_0 124_1 124_2 124_3 124_4 124_5" intLanes=":3_0_0 :3_1_0 :3_1_1 :3_1_2 :3_1_3 :3_1_4" shape="146.72,-103.07 135.41,-115.80 132.73,-118.76 122.70,-109.72 136.52,-94.20">
        <request index="0" response="000000" foes="000000" cont="0"/>
        <request index="1" response="000000" foes="000000" cont="0"/>
        <request index="2" response="000000" foes="000000" cont="0"/>
        <request index="3" response="000000" foes="000000" cont="0"/>
        <request index="4" response="000000" foes="000000" cont="0"/>
        <request index="5" response="000000" foes="000000" cont="0"/>
    </junction>
    <junction id="4" type="dead_end" x="201.08" y="-161.75" incLanes="7_0 7_1 7_2 7_3 7_4" intLanes="" shape="195.39,-168.25 206.71,-155.32"/>
    <junction id="5" type="dead_end" x="191.05" y="-173.06" incLanes="29_0" intLanes="" shape="189.62,-174.42 192.49,-171.69"/>

    <connection from="124" to="29" fromLane="0" toLane="0" contPos="-4.00" via=":3_0_0" dir="R" state="M"/>
    <connection from="124" to="7" fromLane="1" toLane="0" contPos="-4.00" via=":3_1_0" dir="s" state="M"/>
    <connection from="124" to="7" fromLane="2" toLane="1" contPos="-4.00" via=":3_1_1" dir="s" state="M"/>
    <connection from="124" to="7" fromLane="3" toLane="2" contPos="-4.00" via=":3_1_2" dir="s" state="M"/>
    <connection from="124" to="7" fromLane="4" toLane="3" contPos="-4.00" via=":3_1_3" dir="s" state="M"/>
    <connection from="124" to="7" fromLane="5" toLane="4" contPos="-4.00" via=":3_1_4" dir="s" state="M"/>
    <connection from="6" to="124" fromLane="0" toLane="0" contPos="-4.00" via=":2_0_0" dir="s" state="M"/>
    <connection from="6" to="124" fromLane="1" toLane="1" contPos="-4.00" via=":2_0_1" dir="s" state="M"/>
    <connection from="6" to="124" fromLane="2" toLane="2" contPos="-4.00" via=":2_0_2" dir="s" state="M"/>
    <connection from="6" to="124" fromLane="3" toLane="3" contPos="-4.00" via=":2_0_3" dir="s" state="M"/>
    <connection from="6" to="124" fromLane="4" toLane="4" contPos="-4.00" via=":2_0_4" dir="s" state="M"/>
    <connection from="6" to="124" fromLane="5" toLane="5" contPos="-4.00" via=":2_0_5" dir="s" state="M"/>

    <connection from=":2_0" to="124" fromLane="0" toLane="0" dir="s" state="M"/>
    <connection from=":2_0" to="124" fromLane="1" toLane="1" dir="s" state="M"/>
    <connection from=":2_0" to="124" fromLane="2" toLane="2" dir="s" state="M"/>
    <connection from=":2_0" to="124" fromLane="3" toLane="3" dir="s" state="M"/>
    <connection from=":2_0" to="124" fromLane="4" toLane="4" dir="s" state="M"/>
    <connection from=":2_0" to="124" fromLane="5" toLane="5" dir="s" state="M"/>
    <connection from=":3_0" to="29" fromLane="0" toLane="0" dir="R" state="M"/>
    <connection from=":3_1" to="7" fromLane="0" toLane="0" dir="s" state="M"/>
    <connection from=":3_1" to="7" fromLane="1" toLane="1" dir="s" state="M"/>
    <connection from=":3_1" to="7" fromLane="2" toLane="2" dir="s" state="M"/>
    <connection from=":3_1" to="7" fromLane="3" toLane="3" dir="s" state="M"/>
    <connection from=":3_1" to="7" fromLane="4" toLane="4" dir="s" state="M"/>

</net>
