<routes>
	<vehicle depart="0.1" departLane="0" departPos="12.197813573810505" departSpeed="5.1742992" id="315" type="bicycle">
		<route edges="4464"/>
	</vehicle>
	<vehicle depart="0.1" departLane="0" departPos="18.17051315543806" departSpeed="11.383669" id="319" type="passenger">
		<route edges="4464"/>
	</vehicle>
	<vehicle depart="0.1" departLane="0" departPos="60.91604792223906" departSpeed="14.421927" id="322" type="passenger">
		<route edges="4463 4752 4443 4712"/>
	</vehicle>
	<vehicle depart="0.1" departLane="1" departPos="5.01533847416266" departSpeed="10.875614" id="324" type="passenger">
		<route edges=":12_0 4464"/>
	</vehicle>
	<vehicle depart="0.1" departLane="0" departPos="32.485912542919195" departSpeed="16.281833" id="326" type="passenger">
		<route edges="4463 4752 4443"/>
	</vehicle>
</routes>
