<routes>
	<vehicle depart="0.1" departLane="0" departPos="59.89808366909335" departSpeed="0.0" id="32" type="passenger">
		<route edges="40166 40334"/>
	</vehicle>
	<vehicle depart="0.1" departLane="0" departPos="52.449974917412774" departSpeed="0.0" id="35" type="passenger">
		<route edges="40166 40334"/>
	</vehicle>
	<vehicle depart="0.1" departLane="0" departPos="7.372052616362643" departSpeed="1.1804959" id="328" type="passenger">
		<route edges=":51_2 40337 40334"/>
	</vehicle>
	<vehicle depart="0.1" departLane="0" departPos="50.146670996633176" departSpeed="0.75852388" id="338" type="passenger">
		<route edges="40365 40337"/>
	</vehicle>
	<vehicle depart="0.1" departLane="0" departPos="35.05873761749454" departSpeed="1.411282" id="346" type="passenger">
		<route edges="40365 40337"/>
	</vehicle>
	<vehicle depart="0.1" departLane="0" departPos="27.38430160406137" departSpeed="0.12870603" id="352" type="passenger">
		<route edges="40365 40337"/>
	</vehicle>
	<vehicle depart="0.1" departLane="0" departPos="6.626088120790899" departSpeed="0.082005288" id="357" type="passenger">
		<route edges="40365 40337"/>
	</vehicle>
	<vehicle depart="0.1" departLane="0" departPos="60.043082173179606" departSpeed="0.0" id="318" type="motorcycle">
		<route edges="40340 40337"/>
	</vehicle>
	<vehicle depart="0.1" departLane="0" departPos="69.899727966696" departSpeed="0.0" id="30" type="truck">
		<route edges="40166 40334"/>
	</vehicle>
	<vehicle depart="0.1" departLane="0" departPos="70.03197217149341" departSpeed="0.0" id="316" type="truck">
		<route edges="40340 40337"/>
	</vehicle>
</routes>
