<!-- generated on Tue Feb  9 22:14:43 2021 by Eclipse SUMO netconvert Version 1.8.0
<configuration xmlns:xsi="http://www.w3.org/2001/XMLSchema-instance" xsi:noNamespaceSchemaLocation="http://sumo.dlr.de/xsd/netconvertConfiguration.xsd">

    <input>
        <node-files value="./converted_scenarios/scenario-factory/PRI_Barceloneta-2_2_I-1-1/PRI_Barceloneta-2_2_I-1-1.nod.xml"/>
        <edge-files value="./converted_scenarios/scenario-factory/PRI_Barceloneta-2_2_I-1-1/PRI_Barceloneta-2_2_I-1-1.edg.xml"/>
        <connection-files value="./converted_scenarios/scenario-factory/PRI_Barceloneta-2_2_I-1-1/PRI_Barceloneta-2_2_I-1-1.con.xml"/>
        <tllogic-files value="./converted_scenarios/scenario-factory/PRI_Barceloneta-2_2_I-1-1/PRI_Barceloneta-2_2_I-1-1.tll.xml"/>
        <type-files value="/home/zen/commonroad-interactive-benchmarks/install/commonroad-map-tool/crmapconverter/sumo_map/templates/DEU.typ.xml"/>
    </input>

    <output>
        <output-file value="./converted_scenarios/scenario-factory/PRI_Barceloneta-2_2_I-1-1/PRI_Barceloneta-2_2_I-1-1.net.xml"/>
    </output>

    <processing>
        <geometry.remove.keep-edges.explicit value="true"/>
        <geometry.avoid-overlap value="true"/>
        <offset.disable-normalization value="true"/>
    </processing>

    <junctions>
        <no-turnarounds value="true"/>
        <junctions.internal-link-detail value="20"/>
    </junctions>

    <report>
        <aggregate-warnings value="5"/>
    </report>

    <random_number>
        <seed value="1234"/>
    </random_number>

</configuration>
--><net xmlns:xsi="http://www.w3.org/2001/XMLSchema-instance" version="1.6" junctionCornerDetail="5" junctionLinkDetail="20" limitTurnSpeed="5.50" xsi:noNamespaceSchemaLocation="http://sumo.dlr.de/xsd/net_file.xsd">

    <location netOffset="0.00,0.00" convBoundary="-60.53,-419.67,281.06,-54.10" origBoundary="-60.53,-419.67,281.06,-54.10" projParameter="!"/>

    <type id="highway.bridleway" priority="1" speed="2.78" allow="pedestrian" oneway="1" width="2.00"/>
    <type id="highway.bus_guideway" priority="1" speed="27.78" allow="bus" oneway="1"/>
    <type id="highway.cycleway" priority="1" speed="8.33" allow="bicycle" oneway="0" width="1.00"/>
    <type id="highway.footway" priority="1" speed="2.78" allow="pedestrian" oneway="1" width="2.00"/>
    <type id="highway.ford" priority="1" speed="2.78" allow="army" oneway="0"/>
    <type id="highway.living_street" priority="2" speed="2.78" disallow="tram rail_urban rail rail_electric rail_fast ship" oneway="0"/>
    <type id="highway.motorway" priority="14" speed="39.44" allow="private emergency authority army vip passenger hov taxi bus coach delivery truck trailer motorcycle evehicle custom1 custom2" oneway="1"/>
    <type id="highway.motorway_link" priority="9" speed="22.22" allow="private emergency authority army vip passenger hov taxi bus coach delivery truck trailer motorcycle evehicle custom1 custom2" oneway="1"/>
    <type id="highway.path" priority="1" speed="2.78" allow="pedestrian bicycle" oneway="0" width="2.00"/>
    <type id="highway.pedestrian" priority="1" speed="2.78" allow="pedestrian" oneway="1" width="2.00"/>
    <type id="highway.primary" priority="12" speed="27.78" disallow="pedestrian tram rail_urban rail rail_electric rail_fast ship" oneway="0"/>
    <type id="highway.primary_link" priority="7" speed="22.22" disallow="pedestrian tram rail_urban rail rail_electric rail_fast ship" oneway="0"/>
    <type id="highway.raceway" priority="15" speed="83.33" allow="vip" oneway="0"/>
    <type id="highway.residential" priority="3" speed="13.89" disallow="pedestrian tram rail_urban rail rail_electric rail_fast ship" oneway="0"/>
    <type id="highway.secondary" priority="11" speed="27.78" disallow="pedestrian tram rail_urban rail rail_electric rail_fast ship" oneway="0"/>
    <type id="highway.secondary_link" priority="6" speed="22.22" disallow="pedestrian tram rail_urban rail rail_electric rail_fast ship" oneway="0"/>
    <type id="highway.service" priority="1" speed="5.56" allow="pedestrian delivery bicycle" oneway="0"/>
    <type id="highway.stairs" priority="1" speed="1.39" allow="pedestrian" oneway="1" width="2.00"/>
    <type id="highway.step" priority="1" speed="1.39" allow="pedestrian" oneway="1" width="2.00"/>
    <type id="highway.steps" priority="1" speed="1.39" allow="pedestrian" oneway="1" width="2.00"/>
    <type id="highway.tertiary" priority="10" speed="22.22" disallow="pedestrian tram rail_urban rail rail_electric rail_fast ship" oneway="0"/>
    <type id="highway.tertiary_link" priority="5" speed="22.22" disallow="pedestrian tram rail_urban rail rail_electric rail_fast ship" oneway="0"/>
    <type id="highway.track" priority="1" speed="5.56" allow="pedestrian motorcycle moped bicycle" oneway="0"/>
    <type id="highway.trunk" priority="13" speed="27.78" disallow="pedestrian bicycle tram rail_urban rail rail_electric rail_fast ship" oneway="0"/>
    <type id="highway.trunk_link" priority="8" speed="22.22" disallow="pedestrian bicycle tram rail_urban rail rail_electric rail_fast ship" oneway="0"/>
    <type id="highway.unclassified" priority="4" speed="13.89" disallow="pedestrian tram rail_urban rail rail_electric rail_fast ship" oneway="0"/>
    <type id="highway.unsurfaced" priority="1" speed="8.33" disallow="tram rail_urban rail rail_electric rail_fast ship" oneway="0"/>
    <type id="railway.highspeed" priority="21" speed="69.44" allow="rail_fast" oneway="1"/>
    <type id="railway.light_rail" priority="19" speed="27.78" allow="rail_urban" oneway="1"/>
    <type id="railway.preserved" priority="16" speed="27.78" allow="rail" oneway="1"/>
    <type id="railway.rail" priority="20" speed="44.44" allow="rail" oneway="1"/>
    <type id="railway.subway" priority="18" speed="27.78" allow="rail_urban" oneway="1"/>
    <type id="railway.tram" priority="17" speed="13.89" allow="tram" oneway="1"/>

    <edge id=":103_0" function="internal">
        <lane id=":103_0_0" index="0" disallow="pedestrian tram rail_urban rail rail_electric rail_fast ship" speed="36.11" length="3.00" width="3.48" shape="68.75,-299.63 68.39,-296.65"/>
    </edge>
    <edge id=":104_0" function="internal">
        <lane id=":104_0_0" index="0" disallow="pedestrian tram rail_urban rail rail_electric rail_fast ship" speed="36.11" length="4.67" width="3.50" shape="76.68,-273.56 72.07,-274.30"/>
    </edge>
    <edge id=":105_0" function="internal">
        <lane id=":105_0_0" index="0" disallow="pedestrian tram rail_urban rail rail_electric rail_fast ship" speed="36.11" length="38.32" width="3.50" shape="264.67,-267.82 261.21,-252.65 258.52,-239.44 256.99,-230.29"/>
    </edge>
    <edge id=":105_1" function="internal">
        <lane id=":105_1_0" index="0" disallow="pedestrian tram rail_urban rail rail_electric rail_fast ship" speed="12.69" length="34.24" width="3.50" shape="264.67,-267.82 264.01,-265.44 263.14,-263.08 262.04,-260.80 260.66,-258.64 259.00,-256.65 257.05,-254.92 254.87,-253.49 252.51,-252.41 250.06,-251.66 247.56,-251.20 245.06,-251.00 242.56,-251.00 238.93,-251.32"/>
    </edge>
    <edge id=":105_2" function="internal">
        <lane id=":105_2_0" index="0" disallow="pedestrian tram rail_urban rail rail_electric rail_fast ship" speed="11.72" length="29.06" width="3.50" shape="239.38,-254.79 242.59,-254.51 244.74,-254.50 246.89,-254.67 249.01,-255.05 251.07,-255.67 253.03,-256.56 254.84,-257.72 256.45,-259.15 257.84,-260.79 259.00,-262.60 259.95,-264.54 260.69,-266.56 261.27,-268.64"/>
    </edge>
    <edge id=":105_3" function="internal">
        <lane id=":105_3_0" index="0" disallow="pedestrian tram rail_urban rail rail_electric rail_fast ship" speed="12.18" length="34.58" width="3.50" shape="239.38,-254.79 240.66,-254.60 243.18,-254.06 245.69,-253.28 248.13,-252.21 250.41,-250.82 251.51,-249.95 252.52,-249.02 253.44,-247.99 254.27,-246.89 255.00,-245.71 255.62,-244.49 256.13,-243.23 256.55,-241.92 257.10,-239.34 257.35,-236.71 257.35,-234.10 256.99,-230.29"/>
    </edge>
    <edge id=":105_4" function="internal">
        <lane id=":105_4_0" index="0" disallow="pedestrian tram rail_urban rail rail_electric rail_fast ship" speed="11.18" length="28.95" width="3.50" shape="253.52,-230.78 253.84,-234.10 253.84,-236.33 253.64,-238.55 253.18,-240.73 252.84,-241.80 252.43,-242.83 251.93,-243.83 251.34,-244.78 250.68,-245.67 249.94,-246.51 249.12,-247.27 248.25,-247.96 246.35,-249.13 244.31,-250.03 242.19,-250.69 240.00,-251.16 238.93,-251.32"/>
    </edge>
    <edge id=":105_5" function="internal">
        <lane id=":105_5_0" index="0" disallow="pedestrian tram rail_urban rail rail_electric rail_fast ship" speed="36.11" length="38.66" width="3.50" shape="253.52,-230.78 255.07,-240.05 257.78,-253.36 261.27,-268.64"/>
    </edge>
    <edge id=":106_0" function="internal">
        <lane id=":106_0_0" index="0" disallow="pedestrian tram rail_urban rail rail_electric rail_fast ship" speed="11.15" length="28.56" width="3.50" shape="141.87,-264.36 138.58,-264.63 136.38,-264.58 134.20,-264.29 132.07,-263.74 131.05,-263.34 130.06,-262.87 129.11,-262.31 128.22,-261.67 127.38,-260.95 126.62,-260.16 125.92,-259.31 124.72,-257.46 123.79,-255.47 123.09,-253.39 122.57,-251.25 122.22,-249.11"/>
    </edge>
    <edge id=":106_1" function="internal">
        <lane id=":106_1_0" index="0" disallow="pedestrian tram rail_urban rail rail_electric rail_fast ship" speed="36.11" length="38.84" width="3.50" shape="141.87,-264.36 122.63,-267.04 103.40,-269.71"/>
    </edge>
    <edge id=":106_2" function="internal">
        <lane id=":106_2_0" index="0" disallow="pedestrian tram rail_urban rail rail_electric rail_fast ship" speed="12.18" length="34.15" width="3.50" shape="141.87,-264.36 138.00,-265.09 135.48,-265.83 133.05,-266.83 130.77,-268.13 129.70,-268.89 128.70,-269.74 127.78,-270.67 126.93,-271.68 126.19,-272.76 125.53,-273.90 124.98,-275.09 124.16,-277.58 123.68,-280.16 123.50,-282.78 123.56,-285.41 123.83,-288.04"/>
    </edge>
    <edge id=":106_3" function="internal">
        <lane id=":106_3_0" index="0" disallow="pedestrian tram rail_urban rail rail_electric rail_fast ship" speed="11.17" length="28.57" width="3.50" shape="127.30,-287.58 127.07,-285.28 127.01,-283.02 127.16,-280.80 127.55,-278.65 128.24,-276.58 128.68,-275.64 129.20,-274.73 129.80,-273.87 130.47,-273.06 131.22,-272.31 132.02,-271.63 132.87,-271.02 134.78,-269.93 136.82,-269.09 138.96,-268.46 142.33,-267.83"/>
    </edge>
    <edge id=":106_4" function="internal">
        <lane id=":106_4_0" index="0" disallow="pedestrian tram rail_urban rail rail_electric rail_fast ship" speed="36.11" length="38.80" width="3.50" shape="127.30,-287.58 124.76,-268.32 122.22,-249.11"/>
    </edge>
    <edge id=":106_5" function="internal">
        <lane id=":106_5_0" index="0" disallow="pedestrian tram rail_urban rail rail_electric rail_fast ship" speed="12.16" length="34.31" width="3.50" shape="127.30,-287.58 126.56,-283.67 125.81,-281.14 124.79,-278.71 123.48,-276.42 122.70,-275.36 121.83,-274.36 120.89,-273.45 119.86,-272.62 118.77,-271.88 117.61,-271.24 116.41,-270.71 113.89,-269.92 111.29,-269.48 108.66,-269.33 106.03,-269.42 103.40,-269.71"/>
    </edge>
    <edge id=":106_6" function="internal">
        <lane id=":106_6_0" index="0" disallow="pedestrian tram rail_urban rail rail_electric rail_fast ship" speed="11.16" length="28.69" width="3.50" shape="103.89,-273.18 106.18,-272.92 108.45,-272.84 110.69,-272.97 112.86,-273.33 114.96,-273.99 115.90,-274.41 116.83,-274.92 117.70,-275.51 118.52,-276.17 119.28,-276.90 119.98,-277.70 120.60,-278.54 121.70,-280.45 122.55,-282.49 123.19,-284.64 123.83,-288.04"/>
    </edge>
    <edge id=":106_7" function="internal">
        <lane id=":106_7_0" index="0" disallow="pedestrian tram rail_urban rail rail_electric rail_fast ship" speed="36.11" length="38.81" width="3.50" shape="103.89,-273.18 123.12,-270.50 142.33,-267.83"/>
    </edge>
    <edge id=":106_8" function="internal">
        <lane id=":106_8_0" index="0" disallow="pedestrian tram rail_urban rail rail_electric rail_fast ship" speed="12.30" length="34.50" width="3.50" shape="103.89,-273.18 105.15,-272.97 108.74,-272.13 111.14,-271.30 113.46,-270.20 115.64,-268.80 117.59,-267.10 118.50,-266.10 119.30,-265.05 120.01,-263.93 120.64,-262.74 121.57,-260.33 122.17,-257.83 122.46,-255.30 122.51,-252.78 122.22,-249.11"/>
    </edge>
    <edge id=":106_9" function="internal">
        <lane id=":106_9_0" index="0" disallow="pedestrian tram rail_urban rail rail_electric rail_fast ship" speed="11.31" length="28.97" width="3.50" shape="118.75,-249.55 119.00,-252.74 118.96,-254.89 118.71,-257.02 118.22,-259.11 117.44,-261.11 116.94,-262.06 116.36,-262.97 115.71,-263.82 114.99,-264.62 113.38,-266.03 111.57,-267.19 109.63,-268.10 107.60,-268.81 104.46,-269.54 103.40,-269.71"/>
    </edge>
    <edge id=":106_10" function="internal">
        <lane id=":106_10_0" index="0" disallow="pedestrian tram rail_urban rail rail_electric rail_fast ship" speed="36.11" length="38.82" width="3.50" shape="118.75,-249.55 121.29,-268.78 123.83,-288.04"/>
    </edge>
    <edge id=":106_11" function="internal">
        <lane id=":106_11_0" index="0" disallow="pedestrian tram rail_urban rail rail_electric rail_fast ship" speed="12.16" length="34.17" width="3.50" shape="118.75,-249.55 119.16,-252.04 119.76,-254.53 120.59,-256.99 121.72,-259.37 123.14,-261.59 124.02,-262.65 124.97,-263.63 126.01,-264.51 127.12,-265.31 128.29,-266.00 129.51,-266.59 130.79,-267.08 133.34,-267.74 135.93,-268.08 138.53,-268.14 142.33,-267.83"/>
    </edge>
    <edge id=":107_0" function="internal">
        <lane id=":107_0_0" index="0" disallow="pedestrian tram rail_urban rail rail_electric rail_fast ship" speed="10.86" length="29.06" width="3.50" shape="134.15,-202.45 131.96,-202.86 129.73,-203.10 127.50,-203.11 125.28,-202.83 124.19,-202.57 123.13,-202.22 122.10,-201.77 121.12,-201.23 120.20,-200.60 119.35,-199.87 118.57,-199.07 117.86,-198.21 117.23,-197.29 116.17,-195.32 115.35,-193.23 114.74,-191.08 114.13,-187.79"/>
    </edge>
    <edge id=":107_1" function="internal">
        <lane id=":107_1_0" index="0" disallow="pedestrian tram rail_urban rail rail_electric rail_fast ship" speed="12.68" length="33.97" width="3.50" shape="134.15,-202.45 130.51,-203.44 126.99,-204.80 124.75,-205.95 122.65,-207.34 120.74,-208.97 119.07,-210.86 117.70,-212.97 116.67,-215.27 115.98,-217.68 115.60,-220.17 115.49,-222.69 115.62,-225.20 115.75,-226.45"/>
    </edge>
    <edge id=":107_2" function="internal">
        <lane id=":107_2_0" index="0" disallow="pedestrian tram rail_urban rail rail_electric rail_fast ship" speed="11.70" length="28.78" width="3.50" shape="119.23,-226.01 119.11,-224.94 119.00,-222.75 119.09,-220.61 119.41,-218.53 120.00,-216.53 120.85,-214.65 121.98,-212.93 123.36,-211.39 124.96,-210.04 126.74,-208.88 128.64,-207.91 131.72,-206.73 134.94,-205.86"/>
    </edge>
    <edge id=":107_3" function="internal">
        <lane id=":107_3_0" index="0" disallow="pedestrian tram rail_urban rail rail_electric rail_fast ship" speed="36.11" length="38.56" width="3.50" shape="119.23,-226.01 116.68,-206.89 114.13,-187.79"/>
    </edge>
    <edge id=":107_4" function="internal">
        <lane id=":107_4_0" index="0" disallow="pedestrian tram rail_urban rail rail_electric rail_fast ship" speed="36.11" length="38.53" width="3.50" shape="110.66,-188.26 113.21,-207.36 115.75,-226.45"/>
    </edge>
    <edge id=":107_5" function="internal">
        <lane id=":107_5_0" index="0" disallow="pedestrian tram rail_urban rail rail_electric rail_fast ship" speed="11.88" length="35.00" width="3.50" shape="110.66,-188.26 111.37,-192.06 112.09,-194.60 113.07,-197.07 114.34,-199.42 115.14,-200.57 116.02,-201.64 117.00,-202.64 118.07,-203.54 119.23,-204.33 120.46,-205.01 121.74,-205.56 123.06,-205.99 124.43,-206.31 127.09,-206.63 129.76,-206.62 132.37,-206.34 134.94,-205.86"/>
    </edge>
    <edge id=":108_0" function="internal">
        <lane id=":108_0_0" index="0" disallow="pedestrian tram rail_urban rail rail_electric rail_fast ship" speed="36.11" length="21.23" width="3.50" shape="110.27,-138.78 99.75,-137.22 89.27,-135.66"/>
    </edge>
    <edge id=":108_1" function="internal">
        <lane id=":108_1_0" index="0" disallow="pedestrian tram rail_urban rail rail_electric rail_fast ship" speed="8.27" length="18.55" width="3.50" shape="108.17,-139.23 107.68,-139.49 106.84,-140.58 106.30,-141.85 105.97,-143.20 105.66,-145.95 105.69,-150.11 106.19,-155.63 106.37,-157.00"/>
    </edge>
    <edge id=":108_2" function="internal">
        <lane id=":108_2_0" index="0" disallow="pedestrian tram rail_urban rail rail_electric rail_fast ship" speed="7.28" length="14.51" width="3.30" shape="109.84,-156.53 109.69,-155.38 109.21,-150.73 109.06,-147.29 109.15,-145.07 109.29,-144.05 109.52,-143.10 109.84,-142.38 110.02,-142.26"/>
    </edge>
    <edge id=":108_3" function="internal">
        <lane id=":108_3_0" index="0" disallow="pedestrian tram rail_urban rail rail_electric rail_fast ship" speed="13.25" length="31.80" width="3.50" shape="109.84,-156.53 109.17,-153.00 108.48,-150.66 107.58,-148.39 106.44,-146.20 105.05,-144.15 103.42,-142.27 101.56,-140.61 99.52,-139.19 97.35,-138.02 95.09,-137.09 92.76,-136.37 89.27,-135.66"/>
    </edge>
    <edge id=":108_4" function="internal">
        <lane id=":108_4_0" index="0" disallow="pedestrian tram rail_urban rail rail_electric rail_fast ship" speed="12.30" length="27.30" width="3.50" shape="88.72,-139.12 91.81,-139.74 93.81,-140.36 95.76,-141.16 97.61,-142.15 99.33,-143.35 100.90,-144.75 102.27,-146.34 103.45,-148.08 104.42,-149.94 105.19,-151.89 105.78,-153.91 106.37,-157.00"/>
    </edge>
    <edge id=":108_5" function="internal">
        <lane id=":108_5_0" index="0" disallow="pedestrian tram rail_urban rail rail_electric rail_fast ship" speed="7.57" length="21.44" width="3.30" shape="88.72,-139.12 99.24,-140.68 109.94,-142.15"/>
    </edge>
    <edge id=":109_0" function="internal">
        <lane id=":109_0_0" index="0" disallow="pedestrian tram rail_urban rail rail_electric rail_fast ship" speed="11.15" length="28.59" width="3.50" shape="149.85,-323.84 146.56,-324.13 144.37,-324.09 142.18,-323.82 140.06,-323.27 139.03,-322.88 138.03,-322.41 137.08,-321.86 136.19,-321.22 135.35,-320.50 134.58,-319.72 133.88,-318.87 132.68,-317.03 131.74,-315.05 131.02,-312.97 130.50,-310.83 130.14,-308.66"/>
    </edge>
    <edge id=":109_1" function="internal">
        <lane id=":109_1_0" index="0" disallow="pedestrian tram rail_urban rail rail_electric rail_fast ship" speed="12.19" length="33.97" width="3.50" shape="149.85,-323.84 146.00,-324.58 143.50,-325.34 141.08,-326.33 138.81,-327.62 137.75,-328.38 136.74,-329.22 135.82,-330.14 134.97,-331.14 134.22,-332.20 133.56,-333.33 132.99,-334.51 132.15,-336.98 131.66,-339.55 131.46,-342.15 131.51,-344.77 131.77,-347.37"/>
    </edge>
    <edge id=":109_2" function="internal">
        <lane id=":109_2_0" index="0" disallow="pedestrian tram rail_urban rail rail_electric rail_fast ship" speed="11.18" length="28.45" width="3.50" shape="135.24,-346.93 135.02,-344.65 134.97,-342.41 135.13,-340.20 135.54,-338.06 136.25,-336.01 136.69,-335.09 137.22,-334.18 137.83,-333.33 138.51,-332.53 139.25,-331.79 140.06,-331.11 140.91,-330.51 142.82,-329.43 144.85,-328.59 146.98,-327.95 150.34,-327.30"/>
    </edge>
    <edge id=":109_3" function="internal">
        <lane id=":109_3_0" index="0" disallow="pedestrian tram rail_urban rail rail_electric rail_fast ship" speed="36.11" length="38.61" width="3.50" shape="135.24,-346.93 132.69,-327.79 130.14,-308.66"/>
    </edge>
    <edge id=":109_4" function="internal">
        <lane id=":109_4_0" index="0" disallow="pedestrian tram rail_urban rail rail_electric rail_fast ship" speed="36.11" length="38.58" width="3.50" shape="126.67,-309.13 129.22,-328.25 131.77,-347.37"/>
    </edge>
    <edge id=":109_5" function="internal">
        <lane id=":109_5_0" index="0" disallow="pedestrian tram rail_urban rail rail_electric rail_fast ship" speed="12.16" length="34.19" width="3.50" shape="126.67,-309.13 127.09,-311.63 127.70,-314.12 128.55,-316.58 129.68,-318.95 131.12,-321.16 132.00,-322.23 132.95,-323.20 133.99,-324.08 135.11,-324.87 136.28,-325.55 137.51,-326.14 138.79,-326.62 141.34,-327.27 143.94,-327.59 146.54,-327.63 150.34,-327.30"/>
    </edge>
    <edge id=":110_0" function="internal">
        <lane id=":110_0_0" index="0" disallow="pedestrian tram rail_urban rail rail_electric rail_fast ship" speed="11.92" length="28.09" width="3.50" shape="132.11,-140.35 128.77,-140.03 126.65,-139.60 124.58,-138.97 122.62,-138.12 120.81,-137.05 119.16,-135.75 117.71,-134.23 116.46,-132.51 115.43,-130.64 114.60,-128.64 113.95,-126.57 113.27,-123.27"/>
    </edge>
    <edge id=":110_1" function="internal">
        <lane id=":110_1_0" index="0" disallow="pedestrian tram rail_urban rail rail_electric rail_fast ship" speed="7.45" length="21.79" width="3.23" shape="132.11,-140.35 128.83,-140.20 116.91,-139.48 110.37,-138.94"/>
    </edge>
    <edge id=":110_2" function="internal">
        <lane id=":110_2_0" index="0" disallow="pedestrian tram rail_urban rail rail_electric rail_fast ship" speed="7.45" length="21.93" width="3.49" shape="110.07,-142.17 116.57,-142.96 128.64,-143.70 131.93,-143.85"/>
    </edge>
    <edge id=":110_3" function="internal">
        <lane id=":110_3_0" index="0" disallow="pedestrian tram rail_urban rail rail_electric rail_fast ship" speed="8.28" length="19.09" width="3.50" shape="112.13,-141.74 112.47,-141.54 113.24,-140.45 113.71,-139.21 113.99,-137.90 114.25,-135.25 114.18,-131.25 113.65,-125.94 113.27,-123.27"/>
    </edge>
    <edge id=":110_4" function="internal">
        <lane id=":110_4_0" index="0" disallow="pedestrian tram rail_urban rail rail_electric rail_fast ship" speed="7.44" length="15.07" width="3.23" shape="109.82,-123.80 110.15,-126.07 110.66,-130.57 110.85,-133.90 110.80,-136.06 110.70,-137.05 110.52,-137.99 110.23,-138.73"/>
    </edge>
    <edge id=":110_5" function="internal">
        <lane id=":110_5_0" index="0" disallow="pedestrian tram rail_urban rail rail_electric rail_fast ship" speed="12.87" length="32.91" width="3.49" shape="109.81,-123.80 110.59,-127.55 111.34,-129.96 112.32,-132.30 113.54,-134.51 115.03,-136.55 116.77,-138.38 118.76,-139.95 120.93,-141.24 123.26,-142.24 125.68,-142.98 128.15,-143.48 131.93,-143.85"/>
    </edge>
    <edge id=":111_0" function="internal">
        <lane id=":111_0_0" index="0" disallow="pedestrian tram rail_urban rail rail_electric rail_fast ship" speed="14.78" length="38.27" width="3.50" shape="23.81,-125.87 20.67,-125.29 17.58,-124.48 14.58,-123.40 11.70,-122.02 8.99,-120.34 6.51,-118.33 5.01,-116.83 3.64,-115.19 1.86,-112.55 0.41,-109.71 -0.73,-106.73 -1.58,-103.65 -2.00,-101.59"/>
    </edge>
    <edge id=":111_1" function="internal">
        <lane id=":111_1_0" index="0" disallow="pedestrian tram rail_urban rail rail_electric rail_fast ship" speed="36.11" length="45.80" width="3.50" shape="23.81,-125.87 7.31,-123.58 -9.23,-121.67 -21.67,-120.50"/>
    </edge>
    <edge id=":111_2" function="internal">
        <lane id=":111_2_0" index="0" disallow="pedestrian tram rail_urban rail rail_electric rail_fast ship" speed="11.58" length="38.23" width="3.50" shape="23.81,-125.87 19.42,-125.41 16.48,-125.38 13.55,-125.65 12.11,-125.92 10.69,-126.31 9.32,-126.82 8.00,-127.48 6.77,-128.29 5.66,-129.24 4.68,-130.34 3.86,-131.56 3.19,-132.87 2.67,-134.24 2.28,-135.66 2.01,-137.10 1.77,-140.03 1.85,-142.97 2.38,-147.36"/>
    </edge>
    <edge id=":111_3" function="internal">
        <lane id=":111_3_0" index="0" disallow="pedestrian tram rail_urban rail rail_electric rail_fast ship" speed="10.53" length="31.37" width="3.50" shape="5.83,-146.78 5.37,-142.96 5.30,-140.47 5.51,-138.00 5.72,-136.85 6.03,-135.72 6.44,-134.64 6.96,-133.64 7.58,-132.72 8.31,-131.89 9.15,-131.18 10.09,-130.57 11.10,-130.06 12.19,-129.66 13.34,-129.35 14.49,-129.13 16.97,-128.90 19.47,-128.93 23.30,-129.33"/>
    </edge>
    <edge id=":111_4" function="internal">
        <lane id=":111_4_0" index="0" disallow="pedestrian tram rail_urban rail rail_electric rail_fast ship" speed="36.11" length="45.86" width="3.50" shape="5.83,-146.78 1.91,-124.16 -2.00,-101.59"/>
    </edge>
    <edge id=":111_5" function="internal">
        <lane id=":111_5_0" index="0" disallow="pedestrian tram rail_urban rail rail_electric rail_fast ship" speed="14.87" length="41.54" width="3.50" shape="5.83,-146.78 5.11,-143.27 4.12,-139.86 2.81,-136.55 1.15,-133.40 -0.16,-131.42 -1.65,-129.58 -3.30,-127.87 -5.11,-126.34 -7.06,-124.99 -9.13,-123.82 -12.40,-122.42 -15.81,-121.42 -19.31,-120.77 -21.67,-120.50"/>
    </edge>
    <edge id=":111_6" function="internal">
        <lane id=":111_6_0" index="0" disallow="pedestrian tram rail_urban rail rail_electric rail_fast ship" speed="14.04" length="36.90" width="3.50" shape="-21.98,-123.99 -19.85,-124.23 -16.70,-124.81 -13.66,-125.71 -10.76,-126.95 -8.97,-127.97 -7.27,-129.15 -5.69,-130.50 -4.25,-131.98 -2.95,-133.61 -1.80,-135.33 -0.33,-138.14 0.84,-141.10 1.73,-144.18 2.38,-147.36"/>
    </edge>
    <edge id=":111_7" function="internal">
        <lane id=":111_7_0" index="0" disallow="pedestrian tram rail_urban rail rail_electric rail_fast ship" speed="36.11" length="45.60" width="3.50" shape="-21.98,-123.99 -9.60,-125.16 6.87,-127.06 23.30,-129.33"/>
    </edge>
    <edge id=":111_8" function="internal">
        <lane id=":111_8_0" index="0" disallow="pedestrian tram rail_urban rail rail_electric rail_fast ship" speed="36.11" length="45.84" width="3.50" shape="-5.45,-102.19 -1.54,-124.76 2.38,-147.36"/>
    </edge>
    <edge id=":111_9" function="internal">
        <lane id=":111_9_0" index="0" disallow="pedestrian tram rail_urban rail rail_electric rail_fast ship" speed="15.59" length="42.67" width="3.50" shape="-5.45,-102.19 -4.98,-104.49 -4.04,-107.88 -2.77,-111.19 -1.15,-114.37 0.84,-117.34 2.39,-119.20 4.09,-120.91 6.87,-123.16 9.90,-125.06 13.12,-126.59 16.44,-127.79 19.84,-128.69 23.30,-129.33"/>
    </edge>
    <edge id=":112_0" function="internal">
        <lane id=":112_0_0" index="0" disallow="pedestrian tram rail_urban rail rail_electric rail_fast ship" speed="11.23" length="28.54" width="3.50" shape="68.59,-326.61 68.79,-328.89 68.82,-331.14 68.64,-333.35 68.21,-335.48 67.49,-337.54 67.04,-338.46 66.50,-339.36 65.89,-340.22 65.20,-341.01 64.45,-341.75 63.63,-342.43 62.78,-343.03 60.86,-344.11 58.82,-344.95 56.69,-345.59 53.29,-346.24"/>
    </edge>
    <edge id=":112_1" function="internal">
        <lane id=":112_1_0" index="0" disallow="pedestrian tram rail_urban rail rail_electric rail_fast ship" speed="36.11" length="38.58" width="3.50" shape="68.59,-326.61 71.04,-345.74 73.49,-364.88"/>
    </edge>
    <edge id=":112_2" function="internal">
        <lane id=":112_2_0" index="0" disallow="pedestrian tram rail_urban rail rail_electric rail_fast ship" speed="36.11" length="38.54" width="3.50" shape="76.96,-364.42 74.51,-345.29 72.06,-326.19"/>
    </edge>
    <edge id=":112_3" function="internal">
        <lane id=":112_3_0" index="0" disallow="pedestrian tram rail_urban rail rail_electric rail_fast ship" speed="12.17" length="34.32" width="3.50" shape="76.96,-364.42 76.24,-360.50 75.51,-357.97 74.52,-355.53 73.24,-353.23 72.48,-352.15 71.64,-351.14 70.72,-350.20 69.71,-349.35 68.63,-348.59 67.49,-347.92 66.30,-347.36 65.07,-346.90 62.51,-346.25 59.90,-345.93 57.26,-345.89 53.29,-346.24"/>
    </edge>
    <edge id=":112_4" function="internal">
        <lane id=":112_4_0" index="0" disallow="pedestrian tram rail_urban rail rail_electric rail_fast ship" speed="11.16" length="28.71" width="3.50" shape="53.78,-349.71 57.24,-349.40 59.47,-349.44 61.67,-349.70 63.81,-350.25 64.78,-350.62 65.74,-351.07 66.65,-351.60 67.51,-352.21 68.32,-352.89 69.06,-353.64 69.74,-354.46 70.34,-355.31 71.42,-357.25 72.24,-359.31 72.87,-361.46 73.49,-364.88"/>
    </edge>
    <edge id=":112_5" function="internal">
        <lane id=":112_5_0" index="0" disallow="pedestrian tram rail_urban rail rail_electric rail_fast ship" speed="12.24" length="34.05" width="3.50" shape="53.78,-349.71 57.67,-348.96 60.18,-348.21 62.59,-347.21 64.87,-345.93 65.94,-345.17 66.95,-344.33 67.88,-343.42 68.73,-342.42 69.49,-341.36 70.16,-340.23 70.73,-339.06 71.59,-336.59 72.11,-334.02 72.33,-331.42 72.30,-328.80 72.06,-326.19"/>
    </edge>
    <edge id=":113_0" function="internal">
        <lane id=":113_0_0" index="0" disallow="pedestrian tram rail_urban rail rail_electric rail_fast ship" speed="8.46" length="16.31" width="3.50" shape="209.99,-309.52 209.91,-309.99 209.59,-311.03 209.14,-312.01 208.55,-312.93 207.82,-313.74 206.99,-314.44 206.08,-315.03 205.11,-315.51 204.09,-315.91 201.99,-316.46 197.08,-317.18"/>
    </edge>
    <edge id=":113_1" function="internal">
        <lane id=":113_1_0" index="0" disallow="pedestrian tram rail_urban rail rail_electric rail_fast ship" speed="36.11" length="3.59" width="3.49" shape="210.76,-309.39 211.40,-312.92"/>
    </edge>
    <edge id=":113_2" function="internal">
        <lane id=":113_2_0" index="0" disallow="pedestrian tram rail_urban rail rail_electric rail_fast ship" speed="36.11" length="11.54" width="3.50" shape="216.84,-323.63 214.83,-312.27"/>
    </edge>
    <edge id=":113_3" function="internal">
        <lane id=":113_3_0" index="0" disallow="pedestrian tram rail_urban rail rail_electric rail_fast ship" speed="10.17" length="22.79" width="3.50" shape="216.72,-322.94 216.29,-321.47 215.51,-320.01 214.40,-318.76 213.10,-317.81 211.71,-317.16 210.31,-316.72 208.91,-316.45 207.54,-316.31 206.16,-316.26 203.52,-316.35 197.08,-317.18"/>
    </edge>
    <edge id=":113_4" function="internal">