<routes>
	<vehicle depart="0.1" departLane="0" departPos="55.39640146598033" departSpeed="1.9115785" id="316" type="passenger">
		<route edges="19865 19898"/>
	</vehicle>
	<vehicle depart="0.1" departLane="0" departPos="9.564022878463177" departSpeed="0.20355065" id="345" type="passenger">
		<route edges=":111_2 20161"/>
	</vehicle>
	<vehicle depart="0.1" departLane="0" departPos="25.650492752162236" departSpeed="2.2133888" id="382" type="passenger">
		<route edges="19864 19799"/>
	</vehicle>
	<vehicle depart="0.1" departLane="0" departPos="38.32654994678028" departSpeed="7.3563801" id="3101" type="passenger">
		<route edges=":111_7 19864 19799"/>
	</vehicle>
	<vehicle depart="0.1" departLane="0" departPos="29.766633001827838" departSpeed="8.2110084" id="3107" type="passenger">
		<route edges=":111_7 19864"/>
	</vehicle>
	<vehicle depart="0.1" departLane="0" departPos="13.856780048540179" departSpeed="9.761758" id="3111" type="passenger">
		<route edges=":111_6 20161 20158"/>
	</vehicle>
	<vehicle depart="0.1" departLane="0" departPos="15.082907448980771" departSpeed="3.9296565" id="3116" type="passenger">
		<route edges="19897 20161"/>
	</vehicle>
	<vehicle depart="0.1" departLane="0" departPos="32.213136640723256" departSpeed="1.2035612" id="347" type="motorcycle">
		<route edges="19865 20161"/>
	</vehicle>
	<vehicle depart="0.1" departLane="0" departPos="23.008200330291007" departSpeed="3.8976391" id="371" type="truck">
		<route edges="19865 20161"/>
	</vehicle>
	<vehicle depart="0.1" departLane="0" departPos="41.80076269425419" departSpeed="1.0013934" id="372" type="truck">
		<route edges="19864 19799"/>
	</vehicle>
</routes>
