<?xml version="1.0" encoding="UTF-8"?>

<!-- generated on Fri Dec 18 15:55:28 2020 by Eclipse SUMO netconvert Version 1.8.0
<configuration xmlns:xsi="http://www.w3.org/2001/XMLSchema-instance" xsi:noNamespaceSchemaLocation="http://sumo.dlr.de/xsd/netconvertConfiguration.xsd">

    <input>
        <node-files value="./converted_scenarios/NGSIM/US101/USA_US101-10_4_I-1-1/nodes.net.xml"/>
        <edge-files value="./converted_scenarios/NGSIM/US101/USA_US101-10_4_I-1-1/edges.net.xml"/>
        <connection-files value="./converted_scenarios/NGSIM/US101/USA_US101-10_4_I-1-1/_connections.net.xml"/>
        <tllogic-files value="./converted_scenarios/NGSIM/US101/USA_US101-10_4_I-1-1/_tll.net.xml"/>
    </input>

    <output>
        <output-file value="./converted_scenarios/NGSIM/US101/USA_US101-10_4_I-1-1/USA_US101-10_4_I-1-1.net.xml"/>
    </output>

    <processing>
        <plain.extend-edge-shape value="true"/>
        <geometry.remove.keep-edges.explicit value="true"/>
        <geometry.avoid-overlap value="true"/>
        <offset.disable-normalization value="true"/>
    </processing>

    <junctions>
        <no-turnarounds value="true"/>
        <junctions.internal-link-detail value="20"/>
    </junctions>

    <report>
        <aggregate-warnings value="5"/>
    </report>

    <random_number>
        <seed value="1234"/>
    </random_number>

</configuration>
-->

<net version="1.6" junctionCornerDetail="5" junctionLinkDetail="20" limitTurnSpeed="5.50" xmlns:xsi="http://www.w3.org/2001/XMLSchema-instance" xsi:noNamespaceSchemaLocation="http://sumo.dlr.de/xsd/net_file.xsd">

    <location netOffset="0.00,0.00" convBoundary="-35.43,-91.00,94.91,37.60" origBoundary="-40.55,-97.66,100.46,42.06" projParameter="!"/>

    <edge id=":2_0" function="internal">
        <lane id=":2_0_0" index="0" disallow="bus truck rail_fast" speed="36.11" length="35.79" width="3.83" shape="55.10,-68.56 82.39,-91.71"/>
    </edge>
    <edge id=":2_1" function="internal">
        <lane id=":2_1_0" index="0" disallow="bus truck rail_fast" speed="36.11" length="3.00" width="3.50" shape="82.57,-86.91 84.84,-88.88"/>
        <lane id=":2_1_1" index="1" disallow="bus truck rail_fast" speed="36.11" length="3.00" width="3.22" shape="84.86,-84.28 87.09,-86.30"/>
        <lane id=":2_1_2" index="2" disallow="bus truck rail_fast" speed="36.11" length="3.00" width="3.21" shape="87.05,-81.76 89.28,-83.78"/>
        <lane id=":2_1_3" index="3" disallow="bus truck rail_fast" speed="36.11" length="3.00" width="3.32" shape="89.24,-79.24 91.52,-81.20"/>
        <lane id=":2_1_4" index="4" disallow="bus truck rail_fast" speed="36.11" length="3.00" width="3.48" shape="91.46,-76.69 93.76,-78.63"/>
    </edge>

    <edge id="30" from="2" to="3" priority="1" spreadType="center" length="10.42">
        <lane id="30_0" index="0" disallow="rail_fast" speed="36.11" length="10.42" width="3.83" acceleration="1" customShape="1" shape="82.39,-91.71 83.40,-92.58 84.13,-93.22 86.80,-95.54 87.52,-96.18 89.12,-97.59"/>
        <lane id="30_1" index="1" disallow="bus rail_fast" speed="36.11" length="10.42" width="3.50" customShape="1" shape="84.84,-88.88 85.89,-89.82 86.61,-90.48 87.24,-91.05 89.09,-92.57 89.74,-93.13 89.86,-93.22 90.45,-93.72 90.63,-93.88 91.65,-94.80"/>
        <lane id="30_2" index="2" disallow="bus rail_fast" speed="36.11" length="10.42" width="3.22" customShape="1" shape="87.09,-86.30 87.47,-86.66 89.35,-88.33 89.51,-88.46 92.88,-91.23 93.92,-92.16"/>
        <lane id="30_3" index="3" disallow="bus truck rail_fast" speed="36.11" length="10.42" width="3.21" customShape="1" shape="89.28,-83.78 89.65,-84.11 89.75,-84.20 92.62,-86.68 95.59,-89.31 96.05,-89.71"/>
        <lane id="30_4" index="4" disallow="bus truck rail_fast" speed="36.11" length="10.42" width="3.32" customShape="1" shape="91.52,-81.20 94.70,-83.95 94.89,-84.13 97.57,-86.62 97.75,-86.78 98.25,-87.21"/>
        <lane id="30_5" index="5" disallow="bus truck rail_fast" speed="36.11" length="10.42" width="3.48" customShape="1" shape="93.76,-78.63 96.96,-81.33 97.19,-81.53 97.32,-81.65 99.93,-84.08 100.28,-84.39 100.54,-84.61"/>
    </edge>
    <edge id="4" from="4" to="2" priority="1" spreadType="center" length="129.84">
        <lane id="4_0" index="0" disallow="bus truck rail_fast" speed="36.11" length="129.84" width="3.52" customShape="1" shape="-24.63,-29.20 -22.84,-27.81 -22.39,-27.50 -20.54,-26.60 -18.98,-25.93 -16.93,-25.16 -16.23,-24.94 -14.34,-24.57 -12.07,-24.25 -11.08,-24.13 -9.26,-24.20 -7.22,-24.35 -5.08,-24.62 -4.33,-24.85 -2.59,-25.46 3.27,-28.20 3.78,-28.50 6.37,-30.19 8.25,-31.41 9.37,-32.18 15.00,-36.29 16.40,-37.36 24.33,-43.44 30.77,-48.58 35.90,-52.75 43.62,-59.04 45.27,-60.40 53.82,-67.51 55.10,-68.56"/>
    </edge>
    <edge id="8" from="1" to="2" priority="1" spreadType="center" length="171.76">
        <lane id="8_0" index="0" disallow="bus truck rail_fast" speed="36.11" length="171.76" width="3.41" customShape="1" shape="-40.55,33.14 -32.50,24.06 -31.49,22.91 -29.84,21.08 -22.45,13.19 -19.80,10.25 -11.05,1.03 -1.55,-8.68 1.25,-11.48 8.85,-19.01 10.23,-20.40 11.73,-21.85 19.47,-29.21 22.31,-31.98 29.81,-38.98 32.64,-41.75 37.18,-45.99 40.70,-49.24 43.61,-51.93 51.42,-59.05 52.00,-59.59 54.36,-61.76 61.67,-68.37 62.47,-69.11 65.39,-71.82 68.45,-74.57 73.26,-78.74 76.21,-81.39 77.76,-82.73 82.57,-86.91"/>
        <lane id="8_1" index="1" disallow="bus truck rail_fast" speed="36.11" length="171.76" width="3.21" customShape="1" shape="-37.93,35.42 -31.86,28.57 -29.91,26.35 -29.26,25.60 -27.35,23.47 -21.93,17.66 -19.94,15.46 -19.33,14.76 -17.40,12.67 0.93,-6.25 3.71,-9.07 8.82,-14.18 11.29,-16.62 11.63,-16.95 14.05,-19.29 19.57,-24.50 21.87,-26.74 22.37,-27.24 24.63,-29.43 30.15,-34.55 32.20,-36.52 32.94,-37.26 34.94,-39.17 40.94,-44.67 43.09,-46.67 43.84,-47.37 45.97,-49.33 51.62,-54.46 53.83,-56.48 54.52,-57.13 56.69,-59.11 62.83,-64.63 64.90,-66.53 65.72,-67.30 67.76,-69.15 73.58,-74.27 75.62,-76.11 76.47,-76.90 78.47,-78.71 84.58,-84.03 84.86,-84.28"/>
        <lane id="8_2" index="2" disallow="rail_fast" speed="36.11" length="171.76" width="3.19" customShape="1" shape="-35.45,37.58 -34.76,36.80 -32.14,33.83 -29.42,30.84 -26.79,27.91 -24.88,25.85 -22.24,22.91 -19.50,19.99 -16.87,17.10 -14.75,14.90 -12.07,11.98 -4.64,4.45 -1.96,1.54 5.57,-6.02 8.25,-8.94 11.08,-11.75 13.93,-14.53 15.94,-16.43 18.79,-19.18 21.88,-22.08 24.68,-24.81 26.55,-26.57 29.40,-29.33 32.39,-32.11 35.20,-34.82 37.45,-36.89 40.32,-39.62 43.18,-42.22 46.09,-44.88 48.70,-47.25 51.61,-49.94 53.86,-51.98 56.76,-54.65 59.49,-57.11 62.41,-59.78 65.06,-62.15 67.96,-64.80 70.52,-67.10 73.45,-69.76 75.72,-71.73 78.64,-74.33 81.41,-76.72 84.34,-79.37 86.78,-81.51 87.05,-81.76"/>
        <lane id="8_3" index="3" disallow="bus truck rail_fast" speed="36.11" length="171.76" width="3.13" customShape="1" shape="-32.92,39.79 -32.71,39.55 -32.25,39.02 -30.12,36.57 -29.71,36.12 -22.83,28.71 -22.33,28.15 -20.26,25.77 -19.82,25.29 -12.51,17.61 -12.19,17.26 -9.95,14.68 -9.68,14.38 -2.47,6.96 -2.22,6.69 0.06,4.06 7.80,-3.53 8.01,-3.77 10.32,-6.42 18.24,-13.94 18.47,-14.16 21.10,-16.79 21.34,-17.03 28.85,-24.09 29.02,-24.25 31.71,-26.94 31.91,-27.13 39.74,-34.42 42.54,-37.13 42.72,-37.29 50.71,-44.55 50.97,-44.79 53.59,-47.23 53.85,-47.47 61.56,-54.50 61.73,-54.66 64.44,-57.19 64.57,-57.31 72.58,-64.48 72.76,-64.64 75.46,-67.16 75.58,-67.27 83.62,-74.19 83.70,-74.26 86.56,-76.92 86.67,-77.03 89.24,-79.24"/>
        <lane id="8_4" index="4" disallow="bus truck rail_fast" speed="36.11" length="171.76" width="3.48" customShape="1" shape="-30.31,42.07 -30.10,41.84 -27.50,38.84 -20.28,31.08 -17.64,28.05 -17.57,27.97 -9.98,20.02 -7.32,16.97 -0.07,9.29 2.57,6.25 2.70,6.13 10.15,-1.13 12.86,-4.22 13.01,-4.36 20.88,-11.74 21.08,-11.93 23.73,-14.57 23.97,-14.81 31.47,-21.80 31.66,-21.99 34.32,-24.64 34.55,-24.87 42.18,-32.02 42.47,-32.29 45.08,-34.72 45.38,-35.00 53.02,-42.00 53.32,-42.26 55.94,-44.71 56.24,-44.99 63.86,-51.98 64.15,-52.25 66.77,-54.69 67.09,-54.98 74.87,-61.92 75.16,-62.19 77.80,-64.65 78.13,-64.95 85.99,-71.81 86.28,-72.07 88.93,-74.54 89.29,-74.86 91.46,-76.69"/>
    </edge>

    <junction id="1" type="dead_end" x="-35.43" y="37.60" incLanes="" intLanes="" shape="-29.00,43.22 -41.82,32.00"/>
    <junction id="2" type="priority" x="88.18" y="-82.78" incLanes="4_0 8_0 8_1 8_2 8_3 8_4" intLanes=":2_0_0 :2_1_0 :2_1_1 :2_1_2 :2_1_3 :2_1_4" shape="94.90,-77.31 81.13,-93.15 53.94,-69.88 56.25,-67.23 63.19,-72.98 69.65,-78.37 75.17,-82.98 79.29,-86.43 81.54,-88.30 81.46,-88.20 92.60,-75.38">
        <request index="0" response="000000" foes="000000" cont="0"/>
        <request index="1" response="000000" foes="000000" cont="0"/>
        <request index="2" response="000000" foes="000000" cont="0"/>
        <request index="3" response="000000" foes="000000" cont="0"/>
        <request index="4" response="000000" foes="000000" cont="0"/>
        <request index="5" response="000000" foes="000000" cont="0"/>
    </junction>
    <junction id="3" type="dead_end" x="94.91" y="-91.00" incLanes="30_0 30_1 30_2 30_3 30_4 30_5" intLanes="" shape="87.85,-99.03 101.69,-83.30"/>
    <junction id="4" type="dead_end" x="-24.63" y="-29.20" incLanes="" intLanes="" shape="-25.71,-27.81 -23.56,-30.59"/>

    <connection from="4" to="30" fromLane="0" toLane="0" contPos="-4.00" via=":2_0_0" dir="s" state="M"/>
    <connection from="8" to="30" fromLane="0" toLane="1" contPos="-4.00" via=":2_1_0" dir="s" state="M"/>
    <connection from="8" to="30" fromLane="1" toLane="2" contPos="-4.00" via=":2_1_1" dir="s" state="M"/>
    <connection from="8" to="30" fromLane="2" toLane="3" contPos="-4.00" via=":2_1_2" dir="s" state="M"/>
    <connection from="8" to="30" fromLane="3" toLane="4" contPos="-4.00" via=":2_1_3" dir="s" state="M"/>
    <connection from="8" to="30" fromLane="4" toLane="5" contPos="-4.00" via=":2_1_4" dir="s" state="M"/>

    <connection from=":2_0" to="30" fromLane="0" toLane="0" dir="s" state="M"/>
    <connection from=":2_1" to="30" fromLane="0" toLane="1" dir="s" state="M"/>
    <connection from=":2_1" to="30" fromLane="1" toLane="2" dir="s" state="M"/>
    <connection from=":2_1" to="30" fromLane="2" toLane="3" dir="s" state="M"/>
    <connection from=":2_1" to="30" fromLane="3" toLane="4" dir="s" state="M"/>
    <connection from=":2_1" to="30" fromLane="4" toLane="5" dir="s" state="M"/>

</net>
