<routes>
	<vehicle depart="0.1" departLane="1" departPos="5.477503954054274" departSpeed="13.3167" id="500" type="passenger">
		<route edges="30"/>
	</vehicle>
	<vehicle depart="0.1" departLane="1" departPos="170.9804863832453" departSpeed="13.716" id="501" type="passenger">
		<route edges="8 30"/>
	</vehicle>
	<vehicle depart="0.1" departLane="4" departPos="0" departSpeed="13.713" id="503" type="passenger">
		<route edges="30"/>
	</vehicle>
	<vehicle depart="0.1" departLane="2" departPos="156.66822321513" departSpeed="14.0696" id="504" type="passenger">
		<route edges="8 30"/>
	</vehicle>
	<vehicle depart="0.1" departLane="3" departPos="151.75861408290882" departSpeed="13.719" id="506" type="passenger">
		<route edges="8 30"/>
	</vehicle>
	<vehicle depart="0.1" departLane="4" departPos="171.75503742822903" departSpeed="7.4524" id="507" type="passenger">
		<route edges="8 30"/>
	</vehicle>
	<vehicle depart="0.1" departLane="0" departPos="142.76543693293823" departSpeed="13.3533" id="512" type="passenger">
		<route edges="8 30"/>
	</vehicle>
	<vehicle depart="0.1" departLane="1" departPos="145.8625924035566" departSpeed="10.8326" id="513" type="passenger">
		<route edges="8 30"/>
	</vehicle>
	<vehicle depart="0.1" departLane="3" departPos="131.52079405545564" departSpeed="12.8748" id="514" type="passenger">
		<route edges="8 30"/>
	</vehicle>
	<vehicle depart="0.1" departLane="2" departPos="126.07165998889958" departSpeed="13.841" id="515" type="passenger">
		<route edges="8 30"/>
	</vehicle>
	<vehicle depart="0.1" departLane="1" departPos="118.4821711556369" departSpeed="10.6985" id="518" type="passenger">
		<route edges="8 8 30"/>
	</vehicle>
	<vehicle depart="0.1" departLane="0" departPos="110.87030320849537" departSpeed="12.189" id="520" type="passenger">
		<route edges="8 30"/>
	</vehicle>
	<vehicle depart="0.1" departLane="1" departPos="98.82874672154858" departSpeed="11.6616" id="522" type="passenger">
		<route edges="8 30"/>
	</vehicle>
	<vehicle depart="0.1" departLane="4" departPos="144.91324728655908" departSpeed="6.093" id="523" type="passenger">
		<route edges="8 30"/>
	</vehicle>
	<vehicle depart="0.1" departLane="0" departPos="91.65989055830376" departSpeed="9.9883" id="524" type="passenger">
		<route edges="8 4 30"/>
	</vehicle>
	<vehicle depart="0.1" departLane="1" departPos="85.26151109162066" departSpeed="10.665" id="525" type="passenger">
		<route edges="8 30"/>
	</vehicle>
	<vehicle depart="0.1" departLane="2" departPos="94.46734423850116" departSpeed="11.3386" id="526" type="passenger">
		<route edges="8 30"/>
	</vehicle>
	<vehicle depart="0.1" departLane="4" departPos="171.75503742822903" departSpeed="4.8494" id="527" type="passenger">
		<route edges="8 30"/>
	</vehicle>
	<vehicle depart="0.1" departLane="3" departPos="71.65774489897616" departSpeed="12.1585" id="529" type="passenger">
		<route edges="8 30"/>
	</vehicle>
	<vehicle depart="0.1" departLane="0" departPos="75.91798654313102" departSpeed="9.3878" id="531" type="passenger">
		<route edges="8 30"/>
	</vehicle>
	<vehicle depart="0.1" departLane="2" departPos="80.85528262856134" departSpeed="10.7777" id="533" type="passenger">
		<route edges="8 30"/>
	</vehicle>
	<vehicle depart="0.1" departLane="2" departPos="63.51607324004697" departSpeed="11.6952" id="542" type="passenger">
		<route edges="8 30"/>
	</vehicle>
	<vehicle depart="0.1" departLane="4" departPos="119.59976441730781" departSpeed="4.5629" id="544" type="passenger">
		<route edges="8 30"/>
	</vehicle>
	<vehicle depart="0.1" departLane="1" departPos="70.18811387627396" departSpeed="9.3543" id="545" type="passenger">
		<route edges="8 30"/>
	</vehicle>
	<vehicle depart="0.1" departLane="1" departPos="57.13249071737552" departSpeed="8.4795" id="546" type="passenger">
		<route edges="8 30"/>
	</vehicle>
	<vehicle depart="0.1" departLane="0" departPos="50.49215386601649" departSpeed="10.1529" id="549" type="passenger">
		<route edges="8 30"/>
	</vehicle>
	<vehicle depart="0.1" departLane="4" departPos="104.51196472111539" departSpeed="4.569" id="554" type="passenger">
		<route edges="8 30"/>
	</vehicle>
	<vehicle depart="0.1" departLane="3" departPos="31.44835488704146" departSpeed="9.144" id="557" type="passenger">
		<route edges="8 30"/>
	</vehicle>
	<vehicle depart="0.1" departLane="4" departPos="92.58199390253255" departSpeed="3.8527" id="558" type="passenger">
		<route edges="8 30"/>
	</vehicle>
	<vehicle depart="0.1" departLane="0" departPos="34.559413265282934" departSpeed="10.1285" id="560" type="passenger">
		<route edges="8 30"/>
	</vehicle>
	<vehicle depart="0.1" departLane="2" departPos="19.795132748354984" departSpeed="11.4422" id="561" type="passenger">
		<route edges="8 30"/>
	</vehicle>
	<vehicle depart="0.1" departLane="1" departPos="32.380968929853594" departSpeed="10.668" id="562" type="passenger">
		<route edges="8 30"/>
	</vehicle>
	<vehicle depart="0.1" departLane="1" departPos="0" departSpeed="9.1501" id="563" type="passenger">
		<route edges="8 30"/>
	</vehicle>
	<vehicle depart="0.1" departLane="3" departPos="15.077590759220259" departSpeed="9.1684" id="564" type="passenger">
		<route edges="8 30"/>
	</vehicle>
	<vehicle depart="0.1" departLane="4" departPos="76.3930557710094" departSpeed="4.2855" id="566" type="passenger">
		<route edges="8 30"/>
	</vehicle>
	<vehicle depart="0.1" departLane="4" departPos="59.02353055661607" departSpeed="3.0419" id="571" type="passenger">
		<route edges="8 30"/>
	</vehicle>
	<vehicle depart="0.1" departLane="0" departPos="0" departSpeed="7.7633" id="577" type="passenger">
		<route edges="8 30"/>
	</vehicle>
	<vehicle depart="0.1" departLane="4" departPos="48.930319446659" departSpeed="1.524" id="579" type="passenger">
		<route edges="8 30"/>
	</vehicle>
	<vehicle depart="0.1" departLane="4" departPos="39.92874838127049" departSpeed="0.83515" id="588" type="passenger">
		<route edges="8 30"/>
	</vehicle>
	<vehicle depart="0.1" departLane="4" departPos="0" departSpeed="0.27432" id="598" type="passenger">
		<route edges="8 30"/>
	</vehicle>
	<vehicle depart="0.1" departLane="4" departPos="21.89175797013107" departSpeed="1.6002" id="605" type="passenger">
		<route edges="8 30"/>
	</vehicle>
	<vehicle depart="0.1" departLane="4" departPos="13.566682404115426" departSpeed="2.923" id="610" type="passenger">
		<route edges="8 30"/>
	</vehicle>
	<vehicle depart="0.1" departLane="4" departPos="7.4630630688253765" departSpeed="3.048" id="615" type="passenger">
		<route edges="8 30"/>
	</vehicle>
</routes>
