<routes>
	<vehicle depart="0.1" departLane="0" departPos="15.59414756746152" departSpeed="1.6901242" id="39" type="passenger">
		<route edges=":49_2 1901"/>
	</vehicle>
	<vehicle depart="0.1" departLane="0" departPos="28.685020859649757" departSpeed="7.9290069" id="310" type="passenger">
		<route edges="1900 1638"/>
	</vehicle>
	<vehicle depart="0.1" departLane="0" departPos="8.795572272577994" departSpeed="0.74914727" id="327" type="passenger">
		<route edges=":52_4 1490"/>
	</vehicle>
	<vehicle depart="0.1" departLane="0" departPos="30.70308045561691" departSpeed="1.8183641" id="341" type="passenger">
		<route edges=":49_2 1901 1486"/>
	</vehicle>
	<vehicle depart="0.1" departLane="0" departPos="13.087060934562018" departSpeed="2.3053747" id="344" type="passenger">
		<route edges="1901 1486"/>
	</vehicle>
	<vehicle depart="0.1" departLane="0" departPos="29.362554503974067" departSpeed="11.114609" id="321" type="motorcycle">
		<route edges=":52_5 1486 1761"/>
	</vehicle>
	<vehicle depart="0.1" departLane="0" departPos="33.67131762185706" departSpeed="0.87024494" id="332" type="motorcycle">
		<route edges="1901 1486"/>
	</vehicle>
</routes>
