<routes>
	<vehicle depart="0.1" departLane="0" departPos="7.955419322604274" departSpeed="0.44282093" id="37" type="bicycle">
		<route edges="18141 21101"/>
	</vehicle>
	<vehicle depart="0.1" departLane="0" departPos="26.969070277892474" departSpeed="3.2004662" id="328" type="bicycle">
		<route edges=":30_1 18141 21101"/>
	</vehicle>
	<vehicle depart="0.1" departLane="0" departPos="9.96791871510397" departSpeed="1.3663165" id="36" type="passenger">
		<route edges=":30_0 18123"/>
	</vehicle>
	<vehicle depart="0.1" departLane="0" departPos="24.746067912697598" departSpeed="5.4429074" id="313" type="passenger">
		<route edges=":30_2 18123 18125"/>
	</vehicle>
	<vehicle depart="0.1" departLane="0" departPos="25.419654972584205" departSpeed="4.5205387" id="315" type="passenger">
		<route edges="18121 18123"/>
	</vehicle>
	<vehicle depart="0.1" departLane="0" departPos="72.49999843288305" departSpeed="0.090129332" id="318" type="passenger">
		<route edges="18139 18141"/>
	</vehicle>
	<vehicle depart="0.1" departLane="0" departPos="67.87701231313481" departSpeed="3.1498726" id="320" type="passenger">
		<route edges="17824 17826"/>
	</vehicle>
	<vehicle depart="0.1" departLane="0" departPos="35.571220614866" departSpeed="3.0000561" id="321" type="passenger">
		<route edges="18139 18141"/>
	</vehicle>
	<vehicle depart="0.1" departLane="0" departPos="24.51061267107935" departSpeed="0.80914679" id="324" type="passenger">
		<route edges="18139 18141"/>
	</vehicle>
	<vehicle depart="0.1" departLane="0" departPos="13.163106067311952" departSpeed="4.2208852" id="34" type="motorcycle">
		<route edges="18121 18123"/>
	</vehicle>
</routes>
