<routes>
	<vehicle depart="0.1" departLane="0" departPos="8.044203668967661" departSpeed="6.2770261" id="39" type="bicycle">
		<route edges="66175 66664"/>
	</vehicle>
	<vehicle depart="0.1" departLane="0" departPos="59.419374209242584" departSpeed="1.3910998" id="357" type="bus">
		<route edges="66173 66176"/>
	</vehicle>
	<vehicle depart="0.1" departLane="0" departPos="5.069252837714407" departSpeed="0.26641843" id="35" type="passenger">
		<route edges="67105"/>
	</vehicle>
	<vehicle depart="0.1" departLane="0" departPos="18.306273046801188" departSpeed="0.0" id="312" type="passenger">
		<route edges=":53_3 66509"/>
	</vehicle>
	<vehicle depart="0.1" departLane="0" departPos="13.330739557666195" departSpeed="0.0" id="324" type="passenger">
		<route edges=":53_1 66513"/>
	</vehicle>
	<vehicle depart="0.1" departLane="0" departPos="33.31353083510118" departSpeed="0.0" id="325" type="passenger">
		<route edges=":53_3 66509"/>
	</vehicle>
	<vehicle depart="0.1" departLane="0" departPos="16.26439221235273" departSpeed="3.6918703" id="336" type="passenger">
		<route edges=":51_10 66172"/>
	</vehicle>
	<vehicle depart="0.1" departLane="0" departPos="125.94468669031586" departSpeed="5.7107265" id="345" type="passenger">
		<route edges=":56_2 66175 66664"/>
	</vehicle>
	<vehicle depart="0.1" departLane="0" departPos="21.011110576985217" departSpeed="13.74933" id="355" type="passenger">
		<route edges=":51_4 66176 66179"/>
	</vehicle>
	<vehicle depart="0.1" departLane="0" departPos="8.120962616077696" departSpeed="0.0" id="30" type="truck">
		<route edges="66667 66176"/>
	</vehicle>
</routes>
