<routes>
	<vehicle depart="0.1" departLane="0" departPos="1.0" departSpeed="4.5795859" id="39" type="bicycle">
		<route edges="59092 59089"/>
	</vehicle>
	<vehicle depart="0.1" departLane="0" departPos="5.1090254647968205" departSpeed="3.734409" id="342" type="bicycle">
		<route edges=":56_4 59935"/>
	</vehicle>
	<vehicle depart="0.1" departLane="0" departPos="59.731024334035794" departSpeed="1.4820328" id="317" type="passenger">
		<route edges="59937 59934"/>
	</vehicle>
	<vehicle depart="0.1" departLane="0" departPos="9.395244614135633" departSpeed="11.614218" id="322" type="passenger">
		<route edges=":52_0 60113 59938"/>
	</vehicle>
	<vehicle depart="0.1" departLane="0" departPos="10.423821706575692" departSpeed="10.75802" id="324" type="passenger">
		<route edges=":55_4 59089 60117"/>
	</vehicle>
	<vehicle depart="0.1" departLane="0" departPos="50.65828219272425" departSpeed="0.92661135" id="330" type="passenger">
		<route edges="59937 59934"/>
	</vehicle>
	<vehicle depart="0.1" departLane="0" departPos="42.425233758622234" departSpeed="0.81615527" id="333" type="passenger">
		<route edges="59937 59934"/>
	</vehicle>
	<vehicle depart="0.1" departLane="0" departPos="34.77033249393555" departSpeed="0.26343229" id="338" type="passenger">
		<route edges="59937 59934"/>
	</vehicle>
	<vehicle depart="0.1" departLane="0" departPos="27.371830152837152" departSpeed="0.19720813" id="345" type="passenger">
		<route edges="59937 59934"/>
	</vehicle>
</routes>
