<routes>
	<vehicle depart="0.1" departLane="0" departPos="4.910777945882659" departSpeed="0.82357873" id="38" type="bicycle">
		<route edges=":75_1 14853"/>
	</vehicle>
	<vehicle depart="0.1" departLane="0" departPos="41.59071036517241" departSpeed="7.2623637" id="387" type="bus">
		<route edges="14172 14609"/>
	</vehicle>
	<vehicle depart="0.1" departLane="0" departPos="26.59267163542709" departSpeed="0.648992" id="36" type="passenger">
		<route edges=":75_0 14606"/>
	</vehicle>
	<vehicle depart="0.1" departLane="0" departPos="15.548057908361548" departSpeed="1.272774" id="39" type="passenger">
		<route edges=":75_3 14606"/>
	</vehicle>
	<vehicle depart="0.1" departLane="0" departPos="26.60954801303795" departSpeed="0.84667926" id="321" type="passenger">
		<route edges="14603 14853"/>
	</vehicle>
	<vehicle depart="0.1" departLane="0" departPos="2.5" departSpeed="0.031779263" id="335" type="passenger">
		<route edges=":70_3 14169 14841"/>
	</vehicle>
	<vehicle depart="0.1" departLane="0" departPos="14.794762971812746" departSpeed="0.51017001" id="336" type="passenger">
		<route edges="14603 14853"/>
	</vehicle>
	<vehicle depart="0.1" departLane="0" departPos="5.931099647917586" departSpeed="0.52572232" id="343" type="passenger">
		<route edges="14603 14853"/>
	</vehicle>
	<vehicle depart="0.1" departLane="0" departPos="21.762736613946604" departSpeed="10.084038" id="381" type="passenger">
		<route edges=":70_1 14169"/>
	</vehicle>
	<vehicle depart="0.1" departLane="0" departPos="2.5" departSpeed="10.592381" id="382" type="passenger">
		<route edges=":70_1 14169"/>
	</vehicle>
</routes>
