<routes>
	<vehicle depart="0.1" departLane="0" departPos="21.372498544895418" departSpeed="0.90598661" id="315" type="passenger">
		<route edges=":62_3 1121"/>
	</vehicle>
	<vehicle depart="0.1" departLane="0" departPos="69.92951845281601" departSpeed="0.0" id="319" type="passenger">
		<route edges="1144 1124"/>
	</vehicle>
	<vehicle depart="0.1" departLane="0" departPos="70.1939266034021" departSpeed="0.94010167" id="336" type="passenger">
		<route edges="1070 1114"/>
	</vehicle>
	<vehicle depart="0.1" departLane="0" departPos="31.592141004442595" departSpeed="10.002962" id="366" type="passenger">
		<route edges=":62_1 1045"/>
	</vehicle>
	<vehicle depart="0.1" departLane="0" departPos="18.194360732632465" departSpeed="11.909234" id="370" type="passenger">
		<route edges=":62_0 1121 1124"/>
	</vehicle>
	<vehicle depart="0.1" departLane="0" departPos="2.5" departSpeed="13.568146" id="377" type="passenger">
		<route edges=":62_0 1121 1145"/>
	</vehicle>
	<vehicle depart="0.1" departLane="0" departPos="50.562244959724744" departSpeed="10.52831" id="381" type="passenger">
		<route edges="1115 1118"/>
	</vehicle>
	<vehicle depart="0.1" departLane="0" departPos="60.08297926749631" departSpeed="0.26623845" id="34" type="motorcycle">
		<route edges="1046 1117"/>
	</vehicle>
</routes>
