<routes>
	<vehicle depart="0.1" departLane="0" departPos="12.664238646048341" departSpeed="3.7026381" id="35" type="bicycle">
		<route edges=":51_0 14110"/>
	</vehicle>
	<vehicle depart="0.1" departLane="0" departPos="24.75339147515851" departSpeed="2.5891515" id="327" type="passenger">
		<route edges="14113 14016"/>
	</vehicle>
	<vehicle depart="0.1" departLane="0" departPos="31.07272010459751" departSpeed="2.086502" id="337" type="passenger">
		<route edges="14113 14016"/>
	</vehicle>
	<vehicle depart="0.1" departLane="0" departPos="2.5" departSpeed="7.6549699" id="352" type="passenger">
		<route edges="14016 14477"/>
	</vehicle>
	<vehicle depart="0.1" departLane="0" departPos="18.919958021590755" departSpeed="3.3114701" id="356" type="passenger">
		<route edges=":51_5 14114"/>
	</vehicle>
	<vehicle depart="0.1" departLane="0" departPos="24.58781880986419" departSpeed="4.4992159" id="365" type="passenger">
		<route edges="14111 14114"/>
	</vehicle>
	<vehicle depart="0.1" departLane="0" departPos="49.81999096706586" departSpeed="2.5303169" id="315" type="truck">
		<route edges="14113 14016"/>
	</vehicle>
	<vehicle depart="0.1" departLane="0" departPos="60.02778959393133" departSpeed="2.12769" id="358" type="truck">
		<route edges="14111 14114"/>
	</vehicle>
	<vehicle depart="0.1" departLane="0" departPos="44.62284099782414" departSpeed="3.5386335" id="363" type="truck">
		<route edges="14111 14114"/>
	</vehicle>
</routes>
