<!-- generated on Tue Feb  9 22:13:56 2021 by Eclipse SUMO netconvert Version 1.8.0
<configuration xmlns:xsi="http://www.w3.org/2001/XMLSchema-instance" xsi:noNamespaceSchemaLocation="http://sumo.dlr.de/xsd/netconvertConfiguration.xsd">

    <input>
        <node-files value="./converted_scenarios/scenario-factory/ESP_PriegodeCordoba-3_1_I-1-1/ESP_PriegodeCordoba-3_1_I-1-1.nod.xml"/>
        <edge-files value="./converted_scenarios/scenario-factory/ESP_PriegodeCordoba-3_1_I-1-1/ESP_PriegodeCordoba-3_1_I-1-1.edg.xml"/>
        <connection-files value="./converted_scenarios/scenario-factory/ESP_PriegodeCordoba-3_1_I-1-1/ESP_PriegodeCordoba-3_1_I-1-1.con.xml"/>
        <tllogic-files value="./converted_scenarios/scenario-factory/ESP_PriegodeCordoba-3_1_I-1-1/ESP_PriegodeCordoba-3_1_I-1-1.tll.xml"/>
        <type-files value="/home/zen/commonroad-interactive-benchmarks/install/commonroad-map-tool/crmapconverter/sumo_map/templates/DEU.typ.xml"/>
    </input>

    <output>
        <output-file value="./converted_scenarios/scenario-factory/ESP_PriegodeCordoba-3_1_I-1-1/ESP_PriegodeCordoba-3_1_I-1-1.net.xml"/>
    </output>

    <processing>
        <geometry.remove.keep-edges.explicit value="true"/>
        <geometry.avoid-overlap value="true"/>
        <offset.disable-normalization value="true"/>
    </processing>

    <junctions>
        <no-turnarounds value="true"/>
        <junctions.internal-link-detail value="20"/>
    </junctions>

    <report>
        <aggregate-warnings value="5"/>
    </report>

    <random_number>
        <seed value="1234"/>
    </random_number>

</configuration>
--><net xmlns:xsi="http://www.w3.org/2001/XMLSchema-instance" version="1.6" junctionCornerDetail="5" junctionLinkDetail="20" limitTurnSpeed="5.50" xsi:noNamespaceSchemaLocation="http://sumo.dlr.de/xsd/net_file.xsd">

    <location netOffset="0.00,0.00" convBoundary="-421.18,-451.73,-246.43,-151.53" origBoundary="-421.18,-451.73,-246.43,-151.53" projParameter="!"/>

    <type id="highway.bridleway" priority="1" speed="2.78" allow="pedestrian" oneway="1" width="2.00"/>
    <type id="highway.bus_guideway" priority="1" speed="27.78" allow="bus" oneway="1"/>
    <type id="highway.cycleway" priority="1" speed="8.33" allow="bicycle" oneway="0" width="1.00"/>
    <type id="highway.footway" priority="1" speed="2.78" allow="pedestrian" oneway="1" width="2.00"/>
    <type id="highway.ford" priority="1" speed="2.78" allow="army" oneway="0"/>
    <type id="highway.living_street" priority="2" speed="2.78" disallow="tram rail_urban rail rail_electric rail_fast ship" oneway="0"/>
    <type id="highway.motorway" priority="14" speed="39.44" allow="private emergency authority army vip passenger hov taxi bus coach delivery truck trailer motorcycle evehicle custom1 custom2" oneway="1"/>
    <type id="highway.motorway_link" priority="9" speed="22.22" allow="private emergency authority army vip passenger hov taxi bus coach delivery truck trailer motorcycle evehicle custom1 custom2" oneway="1"/>
    <type id="highway.path" priority="1" speed="2.78" allow="pedestrian bicycle" oneway="0" width="2.00"/>
    <type id="highway.pedestrian" priority="1" speed="2.78" allow="pedestrian" oneway="1" width="2.00"/>
    <type id="highway.primary" priority="12" speed="27.78" disallow="pedestrian tram rail_urban rail rail_electric rail_fast ship" oneway="0"/>
    <type id="highway.primary_link" priority="7" speed="22.22" disallow="pedestrian tram rail_urban rail rail_electric rail_fast ship" oneway="0"/>
    <type id="highway.raceway" priority="15" speed="83.33" allow="vip" oneway="0"/>
    <type id="highway.residential" priority="3" speed="13.89" disallow="pedestrian tram rail_urban rail rail_electric rail_fast ship" oneway="0"/>
    <type id="highway.secondary" priority="11" speed="27.78" disallow="pedestrian tram rail_urban rail rail_electric rail_fast ship" oneway="0"/>
    <type id="highway.secondary_link" priority="6" speed="22.22" disallow="pedestrian tram rail_urban rail rail_electric rail_fast ship" oneway="0"/>
    <type id="highway.service" priority="1" speed="5.56" allow="pedestrian delivery bicycle" oneway="0"/>
    <type id="highway.stairs" priority="1" speed="1.39" allow="pedestrian" oneway="1" width="2.00"/>
    <type id="highway.step" priority="1" speed="1.39" allow="pedestrian" oneway="1" width="2.00"/>
    <type id="highway.steps" priority="1" speed="1.39" allow="pedestrian" oneway="1" width="2.00"/>
    <type id="highway.tertiary" priority="10" speed="22.22" disallow="pedestrian tram rail_urban rail rail_electric rail_fast ship" oneway="0"/>
    <type id="highway.tertiary_link" priority="5" speed="22.22" disallow="pedestrian tram rail_urban rail rail_electric rail_fast ship" oneway="0"/>
    <type id="highway.track" priority="1" speed="5.56" allow="pedestrian motorcycle moped bicycle" oneway="0"/>
    <type id="highway.trunk" priority="13" speed="27.78" disallow="pedestrian bicycle tram rail_urban rail rail_electric rail_fast ship" oneway="0"/>
    <type id="highway.trunk_link" priority="8" speed="22.22" disallow="pedestrian bicycle tram rail_urban rail rail_electric rail_fast ship" oneway="0"/>
    <type id="highway.unclassified" priority="4" speed="13.89" disallow="pedestrian tram rail_urban rail rail_electric rail_fast ship" oneway="0"/>
    <type id="highway.unsurfaced" priority="1" speed="8.33" disallow="tram rail_urban rail rail_electric rail_fast ship" oneway="0"/>
    <type id="railway.highspeed" priority="21" speed="69.44" allow="rail_fast" oneway="1"/>
    <type id="railway.light_rail" priority="19" speed="27.78" allow="rail_urban" oneway="1"/>
    <type id="railway.preserved" priority="16" speed="27.78" allow="rail" oneway="1"/>
    <type id="railway.rail" priority="20" speed="44.44" allow="rail" oneway="1"/>
    <type id="railway.subway" priority="18" speed="27.78" allow="rail_urban" oneway="1"/>
    <type id="railway.tram" priority="17" speed="13.89" allow="tram" oneway="1"/>

    <edge id=":50_0" function="internal">
        <lane id=":50_0_0" index="0" disallow="pedestrian tram rail_urban rail rail_electric rail_fast ship" speed="36.11" length="5.40" width="3.50" shape="-276.02,-332.08 -275.86,-331.71 -275.72,-331.38 -275.59,-331.08 -275.48,-330.80 -275.38,-330.55 -275.29,-330.31 -275.22,-330.09 -275.15,-329.88 -275.08,-329.67 -275.02,-329.47 -274.96,-329.26 -274.90,-329.05 -274.84,-328.82 -274.78,-328.58 -274.70,-328.31 -274.62,-328.03 -274.53,-327.71 -274.43,-327.36 -274.31,-326.97"/>
    </edge>
    <edge id=":79_0" function="internal">
        <lane id=":79_0_0" index="0" disallow="pedestrian tram rail_urban rail rail_electric rail_fast ship" speed="36.11" length="4.46" width="3.50" shape="-406.32,-312.66 -407.27,-317.02"/>
    </edge>
    <edge id=":80_0" function="internal">
        <lane id=":80_0_0" index="0" disallow="pedestrian tram rail_urban rail rail_electric rail_fast ship" speed="36.11" length="4.97" width="3.50" shape="-403.51,-301.36 -404.77,-306.17"/>
    </edge>
    <edge id=":81_0" function="internal">
        <lane id=":81_0_0" index="0" disallow="pedestrian tram rail_urban rail rail_electric rail_fast ship" speed="36.11" length="5.32" width="3.50" shape="-401.42,-307.20 -400.07,-302.05"/>
    </edge>
    <edge id=":82_0" function="internal">
        <lane id=":82_0_0" index="0" disallow="pedestrian tram rail_urban rail rail_electric rail_fast ship" speed="36.11" length="4.75" width="3.50" shape="-403.89,-317.92 -402.87,-313.28"/>
    </edge>
    <edge id=":83_0" function="internal">
        <lane id=":83_0_0" index="0" disallow="pedestrian tram rail_urban rail rail_electric rail_fast ship" speed="36.11" length="5.64" width="3.50" shape="-277.60,-325.76 -277.72,-326.17 -277.83,-326.53 -277.93,-326.86 -278.01,-327.16 -278.09,-327.44 -278.16,-327.69 -278.23,-327.92 -278.29,-328.15 -278.36,-328.36 -278.42,-328.58 -278.49,-328.79 -278.57,-329.01 -278.65,-329.24 -278.74,-329.49 -278.85,-329.75 -278.96,-330.04 -279.10,-330.36 -279.25,-330.70 -279.42,-331.09"/>
    </edge>
    <edge id=":87_0" function="internal">
        <lane id=":87_0_0" index="0" disallow="pedestrian tram rail_urban rail rail_electric rail_fast ship" speed="36.11" length="24.42" width="3.50" shape="-374.06,-306.76 -377.50,-318.52 -380.92,-330.20"/>
    </edge>
    <edge id=":87_1" function="internal">
        <lane id=":87_1_0" index="0" disallow="pedestrian tram rail_urban rail rail_electric rail_fast ship" speed="11.47" length="30.60" width="3.50" shape="-374.06,-306.75 -374.66,-309.40 -374.90,-312.04 -374.86,-313.37 -374.70,-314.69 -374.41,-315.99 -373.99,-317.24 -373.43,-318.45 -372.74,-319.59 -371.95,-320.65 -371.05,-321.63 -370.07,-322.53 -367.93,-324.09 -365.60,-325.38 -363.17,-326.44 -359.38,-327.68 -358.10,-328.02"/>
    </edge>
    <edge id=":87_2" function="internal">
        <lane id=":87_2_0" index="0" disallow="pedestrian tram rail_urban rail rail_electric rail_fast ship" speed="10.38" length="24.92" width="3.50" shape="-357.21,-324.64 -358.34,-324.34 -361.65,-323.26 -363.72,-322.38 -365.67,-321.32 -367.47,-320.05 -368.24,-319.36 -368.96,-318.61 -369.60,-317.79 -370.15,-316.94 -370.59,-316.03 -370.94,-315.08 -371.18,-314.09 -371.32,-313.07 -371.36,-312.07 -371.19,-309.90 -370.70,-307.73"/>
    </edge>
    <edge id=":87_3" function="internal">
        <lane id=":87_3_0" index="0" disallow="pedestrian tram rail_urban rail rail_electric rail_fast ship" speed="11.02" length="26.95" width="3.50" shape="-357.21,-324.64 -360.73,-323.84 -364.28,-323.26 -367.91,-322.98 -370.41,-323.03 -372.89,-323.38 -374.19,-323.71 -375.44,-324.17 -376.66,-324.78 -377.81,-325.57 -378.85,-326.53 -379.74,-327.66 -380.43,-328.90 -380.92,-330.20"/>
    </edge>
    <edge id=":87_4" function="internal">
        <lane id=":87_4_0" index="0" disallow="pedestrian tram rail_urban rail rail_electric rail_fast ship" speed="9.89" length="21.62" width="3.50" shape="-377.58,-331.23 -377.21,-330.27 -376.68,-329.39 -376.00,-328.61 -375.20,-327.97 -374.30,-327.47 -373.35,-327.08 -372.35,-326.81 -371.34,-326.62 -369.29,-326.45 -367.23,-326.48 -364.15,-326.80 -361.11,-327.33 -358.10,-328.02"/>
    </edge>
    <edge id=":87_5" function="internal">
        <lane id=":87_5_0" index="0" disallow="pedestrian tram rail_urban rail rail_electric rail_fast ship" speed="36.11" length="24.49" width="3.50" shape="-377.58,-331.23 -374.14,-319.50 -370.70,-307.73"/>
    </edge>
    <edge id=":88_0" function="internal">
        <lane id=":88_0_0" index="0" disallow="pedestrian tram rail_urban rail rail_electric rail_fast ship" speed="14.39" length="27.02" width="3.49" shape="-311.51,-287.62 -315.31,-291.23 -319.11,-294.58 -322.29,-297.09 -324.79,-298.82 -326.53,-299.85 -328.35,-300.75 -329.29,-301.11 -330.26,-301.40 -331.26,-301.59 -332.27,-301.62 -333.76,-301.32"/>
    </edge>
    <edge id=":88_1" function="internal">
        <lane id=":88_1_0" index="0" disallow="pedestrian tram rail_urban rail rail_electric rail_fast ship" speed="25.67" length="35.94" width="3.50" shape="-311.51,-287.62 -313.09,-289.35 -314.34,-291.13 -315.36,-293.04 -316.17,-295.04 -317.05,-298.18 -317.61,-301.38 -318.13,-306.77 -318.75,-314.34 -319.41,-318.62 -320.20,-321.77"/>
    </edge>
    <edge id=":88_2" function="internal">
        <lane id=":88_2_0" index="0" disallow="pedestrian tram rail_urban rail rail_electric rail_fast ship" speed="25.22" length="34.04" width="3.47" shape="-316.85,-322.79 -316.05,-319.55 -315.39,-315.21 -314.82,-307.77 -314.35,-302.58 -313.86,-299.60 -313.09,-296.71 -312.38,-294.92 -311.50,-293.21 -310.42,-291.64 -309.19,-290.23"/>
    </edge>
    <edge id=":88_3" function="internal">
        <lane id=":88_3_0" index="0" disallow="pedestrian tram rail_urban rail rail_electric rail_fast ship" speed="11.65" length="31.14" width="3.49" shape="-316.85,-322.79 -316.26,-320.23 -316.10,-318.84 -316.07,-317.47 -316.18,-316.08 -316.43,-314.70 -316.84,-313.35 -317.39,-312.06 -318.08,-310.84 -318.89,-309.71 -319.78,-308.68 -320.75,-307.73 -321.79,-306.86 -323.93,-305.39 -326.20,-304.15 -329.69,-302.65 -333.76,-301.32"/>
    </edge>
    <edge id=":88_4" function="internal">
        <lane id=":88_4_0" index="0" disallow="pedestrian tram rail_urban rail rail_electric rail_fast ship" speed="10.55" length="25.53" width="3.50" shape="-334.74,-304.67 -331.15,-305.84 -328.14,-307.11 -326.22,-308.13 -324.40,-309.33 -323.55,-310.00 -322.75,-310.74 -322.01,-311.54 -321.34,-312.40 -320.77,-313.33 -320.30,-314.31 -319.95,-315.34 -319.72,-316.40 -319.61,-317.48 -319.62,-318.57 -319.73,-319.65 -320.20,-321.77"/>
    </edge>
    <edge id=":88_5" function="internal">
        <lane id=":88_5_0" index="0" disallow="pedestrian tram rail_urban rail rail_electric rail_fast ship" speed="15.13" length="30.57" width="3.47" shape="-334.74,-304.67 -332.89,-305.08 -331.53,-305.11 -330.23,-304.96 -329.01,-304.68 -327.82,-304.31 -325.67,-303.39 -323.63,-302.28 -320.79,-300.42 -317.26,-297.69 -313.11,-294.04 -309.19,-290.23"/>
    </edge>
    <edge id=":89_0" function="internal">
        <lane id=":89_0_0" index="0" disallow="pedestrian tram rail_urban rail rail_electric rail_fast ship" speed="9.98" length="22.10" width="3.50" shape="-328.02,-345.64 -328.41,-346.65 -328.92,-347.57 -329.56,-348.40 -330.33,-349.12 -331.19,-349.72 -332.13,-350.19 -333.12,-350.54 -334.14,-350.79 -335.18,-350.96 -337.28,-351.08 -339.38,-350.98 -341.47,-350.74 -344.57,-350.15 -347.62,-349.38"/>
    </edge>
    <edge id=":89_1" function="internal">
        <lane id=":89_1_0" index="0" disallow="pedestrian tram rail_urban rail rail_electric rail_fast ship" speed="8.94" length="17.31" width="3.50" shape="-328.03,-345.64 -328.77,-348.46 -329.01,-349.88 -329.15,-351.31 -329.16,-352.75 -328.99,-354.18 -328.62,-355.57 -328.00,-356.87 -327.15,-358.03 -326.09,-359.00 -324.87,-359.76 -323.55,-360.34"/>
    </edge>
    <edge id=":89_2" function="internal">
        <lane id=":89_2_0" index="0" disallow="pedestrian tram rail_urban rail rail_electric rail_fast ship" speed="7.50" length="11.93" width="3.50" shape="-322.31,-357.07 -323.19,-356.69 -323.94,-356.21 -324.56,-355.61 -325.04,-354.88 -325.38,-354.04 -325.57,-353.11 -325.64,-352.11 -325.61,-351.07 -325.48,-349.99 -325.28,-348.92 -324.70,-346.73"/>
    </edge>
    <edge id=":89_3" function="internal">
        <lane id=":89_3_0" index="0" disallow="pedestrian tram rail_urban rail rail_electric rail_fast ship" speed="36.11" length="26.46" width="3.50" shape="-322.31,-357.07 -323.38,-356.69 -332.44,-353.77 -347.62,-349.38"/>
    </edge>
    <edge id=":89_4" function="internal">
        <lane id=":89_4_0" index="0" disallow="pedestrian tram rail_urban rail rail_electric rail_fast ship" speed="36.11" length="26.16" width="3.50" shape="-348.58,-352.74 -333.50,-357.11 -324.53,-359.99 -323.55,-360.34"/>
    </edge>
    <edge id=":89_5" function="internal">
        <lane id=":89_5_0" index="0" disallow="pedestrian tram rail_urban rail rail_electric rail_fast ship" speed="11.12" length="27.46" width="3.50" shape="-348.58,-352.75 -345.02,-353.63 -341.41,-354.27 -338.92,-354.52 -336.38,-354.55 -333.84,-354.29 -332.52,-354.01 -331.23,-353.60 -329.97,-353.05 -328.77,-352.34 -327.66,-351.46 -326.68,-350.43 -325.85,-349.27 -325.20,-348.03 -324.70,-346.73"/>
    </edge>
    <edge id=":90_0" function="internal">
        <lane id=":90_0_0" index="0" disallow="pedestrian tram rail_urban rail rail_electric rail_fast ship" speed="36.11" length="20.67" width="3.50" shape="-295.20,-340.57 -307.13,-337.88 -315.32,-335.83"/>
    </edge>
    <edge id=":90_1" function="internal">
        <lane id=":90_1_0" index="0" disallow="pedestrian tram rail_urban rail rail_electric rail_fast ship" speed="11.35" length="23.84" width="3.50" shape="-295.20,-340.57 -298.37,-340.10 -299.65,-340.05 -300.94,-340.11 -302.22,-340.28 -303.47,-340.57 -304.69,-340.99 -305.86,-341.53 -306.97,-342.19 -308.01,-342.95 -308.98,-343.81 -310.69,-345.73 -312.13,-347.87 -313.34,-350.14 -313.87,-351.34"/>
    </edge>
    <edge id=":90_2" function="internal">
        <lane id=":90_2_0" index="0" disallow="pedestrian tram rail_urban rail rail_electric rail_fast ship" speed="10.16" length="18.98" width="3.50" shape="-310.66,-352.72 -310.21,-351.72 -309.20,-349.81 -308.04,-348.06 -306.66,-346.49 -305.94,-345.84 -305.15,-345.25 -304.31,-344.74 -303.43,-344.32 -302.52,-343.99 -301.57,-343.76 -300.59,-343.62 -299.59,-343.56 -298.61,-343.59 -295.94,-344.00"/>
    </edge>
    <edge id=":90_3" function="internal">
        <lane id=":90_3_0" index="0" disallow="pedestrian tram rail_urban rail rail_electric rail_fast ship" speed="9.09" length="20.66" width="3.50" shape="-310.66,-352.72 -309.60,-349.94 -308.82,-347.09 -308.59,-345.64 -308.49,-344.17 -308.57,-342.69 -308.86,-341.25 -309.43,-339.89 -310.26,-338.68 -311.33,-337.67 -312.57,-336.87 -313.91,-336.27 -315.32,-335.83"/>
    </edge>
    <edge id=":90_4" function="internal">
        <lane id=":90_4_0" index="0" disallow="pedestrian tram rail_urban rail rail_electric rail_fast ship" speed="7.69" length="14.54" width="3.50" shape="-316.22,-339.21 -315.22,-339.52 -314.34,-339.93 -313.58,-340.44 -312.96,-341.07 -312.50,-341.84 -312.21,-342.72 -312.07,-343.68 -312.07,-344.72 -312.18,-345.80 -312.38,-346.87 -313.02,-349.12 -313.87,-351.34"/>
    </edge>
    <edge id=":90_5" function="internal">
        <lane id=":90_5_0" index="0" disallow="pedestrian tram rail_urban rail rail_electric rail_fast ship" speed="36.11" length="20.84" width="3.50" shape="-316.22,-339.21 -307.94,-341.28 -295.94,-344.00"/>
    </edge>
    <edge id=":91_0" function="internal">
        <lane id=":91_0_0" index="0" disallow="pedestrian tram rail_urban rail rail_electric rail_fast ship" speed="10.66" length="25.43" width="3.50" shape="-320.27,-322.00 -321.04,-323.99 -321.53,-324.93 -322.10,-325.82 -322.76,-326.65 -323.50,-327.41 -324.32,-328.08 -325.20,-328.67 -326.14,-329.16 -327.12,-329.55 -328.13,-329.86 -330.21,-330.25 -332.33,-330.37 -334.44,-330.28 -337.59,-329.85 -340.69,-329.16 -341.72,-328.89"/>
    </edge>
    <edge id=":91_1" function="internal">
        <lane id=":91_1_0" index="0" disallow="pedestrian tram rail_urban rail rail_electric rail_fast ship" speed="36.11" length="24.67" width="3.50" shape="-320.27,-322.00 -320.59,-323.02 -327.96,-345.44"/>
    </edge>
    <edge id=":91_2" function="internal">
        <lane id=":91_2_0" index="0" disallow="pedestrian tram rail_urban rail rail_electric rail_fast ship" speed="9.31" length="20.23" width="3.49" shape="-320.28,-322.00 -321.34,-326.14 -321.78,-328.94 -321.88,-330.35 -321.87,-331.77 -321.72,-333.18 -321.39,-334.56 -320.84,-335.87 -320.04,-337.04 -319.00,-337.99 -317.77,-338.70 -316.07,-339.25"/>
    </edge>
    <edge id=":91_3" function="internal">
        <lane id=":91_3_0" index="0" disallow="pedestrian tram rail_urban rail rail_electric rail_fast ship" speed="7.96" length="14.54" width="3.50" shape="-315.19,-335.86 -316.29,-335.54 -316.97,-335.13 -317.52,-334.53 -317.92,-333.77 -318.18,-332.88 -318.33,-331.89 -318.37,-330.85 -318.33,-329.77 -318.22,-328.67 -317.82,-326.41 -316.94,-323.05"/>
    </edge>
    <edge id=":91_4" function="internal">
        <lane id=":91_4_0" index="0" disallow="pedestrian tram rail_urban rail rail_electric rail_fast ship" speed="36.11" length="27.43" width="3.50" shape="-315.19,-335.86 -339.71,-329.44 -341.72,-328.89"/>
    </edge>
    <edge id=":91_5" function="internal">
        <lane id=":91_5_0" index="0" disallow="pedestrian tram rail_urban rail rail_electric rail_fast ship" speed="9.18" length="18.00" width="3.50" shape="-315.19,-335.86 -317.04,-335.51 -318.60,-335.48 -320.17,-335.75 -321.66,-336.33 -322.99,-337.18 -324.11,-338.19 -325.04,-339.31 -325.82,-340.49 -326.49,-341.71 -327.06,-342.96 -327.96,-345.44"/>
    </edge>
    <edge id=":91_6" function="internal">
        <lane id=":91_6_0" index="0" disallow="pedestrian tram rail_urban rail rail_electric rail_fast ship" speed="7.78" length="12.67" width="3.49" shape="-324.63,-346.52 -323.93,-344.56 -323.52,-343.62 -323.05,-342.71 -322.52,-341.84 -321.90,-341.03 -321.19,-340.29 -320.37,-339.68 -319.45,-339.24 -318.46,-339.01 -317.44,-338.99 -316.07,-339.25"/>
    </edge>
    <edge id=":91_7" function="internal">
        <lane id=":91_7_0" index="0" disallow="pedestrian tram rail_urban rail rail_electric rail_fast ship" speed="36.11" length="24.70" width="3.50" shape="-324.63,-346.52 -317.25,-324.06 -316.94,-323.05"/>
    </edge>
    <edge id=":91_8" function="internal">
        <lane id=":91_8_0" index="0" disallow="pedestrian tram rail_urban rail rail_electric rail_fast ship" speed="10.89" length="27.75" width="3.50" shape="-324.63,-346.52 -324.29,-345.21 -324.10,-343.90 -324.08,-342.58 -324.24,-341.27 -324.60,-340.00 -325.13,-338.80 -325.82,-337.68 -326.65,-336.64 -327.57,-335.70 -329.63,-334.06 -331.88,-332.68 -335.47,-331.00 -339.19,-329.65 -341.72,-328.89"/>
    </edge>
    <edge id=":91_9" function="internal">
        <lane id=":91_9_0" index="0" disallow="pedestrian tram rail_urban rail rail_electric rail_fast ship" speed="9.73" length="22.05" width="3.50" shape="-342.67,-332.26 -340.46,-332.92 -337.22,-334.07 -334.12,-335.47 -332.23,-336.56 -330.48,-337.85 -329.75,-338.53 -329.08,-339.28 -328.53,-340.07 -328.09,-340.89 -327.79,-341.75 -327.63,-342.63 -327.61,-343.54 -327.72,-344.48 -327.96,-345.44"/>
    </edge>
    <edge id=":91_10" function="internal">
        <lane id=":91_10_0" index="0" disallow="pedestrian tram rail_urban rail rail_electric rail_fast ship" speed="36.11" length="27.50" width="3.49" shape="-342.67,-332.26 -340.64,-332.82 -316.07,-339.25"/>
    </edge>
    <edge id=":91_11" function="internal">
        <lane id=":91_11_0" index="0" disallow="pedestrian tram rail_urban rail rail_electric rail_fast ship" speed="11.74" length="30.88" width="3.50" shape="-342.67,-332.26 -341.47,-332.58 -337.91,-333.35 -334.25,-333.82 -331.72,-333.88 -329.18,-333.68 -326.67,-333.14 -325.39,-332.71 -324.17,-332.17 -322.99,-331.50 -321.89,-330.72 -320.88,-329.82 -319.96,-328.83 -319.15,-327.76 -318.45,-326.63 -317.84,-325.43 -316.94,-323.05"/>
    </edge>
    <edge id=":92_0" function="internal">
        <lane id=":92_0_0" index="0" disallow="pedestrian tram rail_urban rail rail_electric rail_fast ship" speed="36.11" length="34.39" width="3.50" shape="-349.60,-296.68 -372.65,-290.10 -382.71,-287.37"/>
    </edge>
    <edge id=":92_1" function="internal">
        <lane id=":92_1_0" index="0" disallow="pedestrian tram rail_urban rail rail_electric rail_fast ship" speed="11.47" length="30.04" width="3.50" shape="-349.60,-296.68 -350.82,-296.34 -354.42,-295.55 -356.93,-295.23 -359.48,-295.14 -362.04,-295.35 -363.37,-295.60 -364.66,-295.96 -365.92,-296.45 -367.14,-297.06 -368.29,-297.79 -369.36,-298.65 -370.33,-299.61 -371.20,-300.66 -371.97,-301.80 -373.15,-304.11 -374.00,-306.56"/>
    </edge>
    <edge id=":92_2" function="internal">
        <lane id=":92_2_0" index="0" disallow="pedestrian tram rail_urban rail rail_electric rail_fast ship" speed="10.37" length="24.49" width="3.50" shape="-370.65,-307.56 -369.93,-305.52 -368.95,-303.63 -368.34,-302.76 -367.65,-301.96 -366.88,-301.23 -366.03,-300.59 -365.12,-300.04 -364.15,-299.59 -363.15,-299.24 -362.12,-298.98 -361.07,-298.80 -358.95,-298.67 -356.83,-298.77 -354.72,-299.06 -351.61,-299.75 -350.58,-300.04"/>
    </edge>
    <edge id=":92_3" function="internal">
        <lane id=":92_3_0" index="0" disallow="pedestrian tram rail_urban rail rail_electric rail_fast ship" speed="10.80" length="27.08" width="3.50" shape="-370.65,-307.56 -370.03,-304.89 -369.71,-302.20 -369.70,-300.85 -369.80,-299.50 -370.02,-298.17 -370.39,-296.87 -370.89,-295.61 -371.54,-294.43 -372.32,-293.32 -373.22,-292.32 -374.22,-291.40 -375.30,-290.59 -377.63,-289.23 -380.12,-288.18 -382.71,-287.37"/>
    </edge>
    <edge id=":92_4" function="internal">
        <lane id=":92_4_0" index="0" disallow="pedestrian tram rail_urban rail rail_electric rail_fast ship" speed="9.62" length="21.41" width="3.50" shape="-383.63,-290.75 -381.45,-291.42 -379.40,-292.28 -377.49,-293.39 -376.68,-294.00 -375.91,-294.70 -375.22,-295.46 -374.64,-296.28 -374.15,-297.16 -373.77,-298.09 -373.49,-299.08 -373.32,-300.09 -373.24,-301.14 -373.24,-302.18 -373.50,-304.39 -374.00,-306.56"/>
    </edge>
    <edge id=":92_5" function="internal">
        <lane id=":92_5_0" index="0" disallow="pedestrian tram rail_urban rail rail_electric rail_fast ship" speed="36.11" length="34.33" width="3.50" shape="-383.63,-290.75 -373.58,-293.48 -350.58,-300.04"/>
    </edge>
    <edge id=":93_0" function="internal">
        <lane id=":93_0_0" index="0" disallow="pedestrian tram rail_urban rail rail_electric rail_fast ship" speed="20.77" length="46.96" width="3.50" shape="-271.66,-316.83 -269.92,-309.37 -268.74,-302.92 -268.03,-297.51 -267.65,-292.07 -267.65,-287.70 -267.99,-283.35 -268.53,-280.12 -269.37,-276.96 -270.58,-273.91 -271.61,-271.99 -272.20,-271.07"/>
    </edge>
    <edge id=":93_1" function="internal">
        <lane id=":93_1_0" index="0" disallow="pedestrian tram rail_urban rail rail_electric rail_fast ship" speed="13.15" length="41.61" width="3.50" shape="-271.66,-316.83 -271.36,-315.55 -270.92,-313.03 -270.71,-310.44 -270.79,-307.81 -271.21,-305.18 -272.00,-302.65 -272.56,-301.38 -273.22,-300.17 -274.75,-298.00 -276.57,-296.07 -278.60,-294.39 -280.77,-292.97 -283.05,-291.75 -286.55,-290.28 -290.14,-289.13 -293.77,-288.23"/>
    </edge>
    <edge id=":93_2" function="internal">
        <lane id=":93_2_0" index="0" disallow="pedestrian tram rail_urban rail rail_electric rail_fast ship" speed="12.24" length="35.88" width="3.50" shape="-294.51,-291.65 -291.25,-292.46 -288.04,-293.48 -284.93,-294.76 -282.95,-295.80 -281.06,-297.01 -279.31,-298.42 -277.75,-300.02 -276.43,-301.84 -275.88,-302.81 -275.41,-303.83 -274.71,-305.96 -274.33,-308.16 -274.24,-310.40 -274.41,-312.64 -274.79,-314.85 -275.05,-315.95"/>
    </edge>
    <edge id=":93_3" function="internal">
        <lane id=":93_3_0" index="0" disallow="pedestrian tram rail_urban rail rail_electric rail_fast ship" speed="11.55" length="49.71" width="3.50" shape="-294.51,-291.65 -288.88,-292.74 -283.19,-293.53 -279.37,-293.79 -275.54,-293.74 -273.64,-293.53 -271.77,-293.16 -269.96,-292.54 -268.29,-291.61 -266.92,-290.29 -266.04,-288.61 -265.68,-286.73 -265.76,-284.83 -266.13,-282.95 -266.71,-281.13 -267.43,-279.35 -269.16,-275.94 -271.14,-272.67 -272.20,-271.07"/>
    </edge>
    <edge id=":93_4" function="internal">
        <lane id=":93_4_0" index="0" disallow="pedestrian tram rail_urban rail rail_electric rail_fast ship" speed="10.43" length="40.18" width="3.50" shape="-275.10,-273.03 -274.19,-274.41 -272.48,-277.24 -271.03,-280.15 -270.46,-281.59 -270.03,-283.05 -269.78,-284.46 -269.76,-285.79 -270.04,-286.98 -270.68,-287.98 -271.65,-288.75 -272.87,-289.33 -274.27,-289.73 -275.78,-289.99 -277.33,-290.13 -280.59,-290.14 -283.87,-289.89 -288.83,-289.19 -293.77,-288.23"/>
    </edge>
    <edge id=":93_5" function="internal">
        <lane id=":93_5_0" index="0" disallow="pedestrian tram rail_urban rail rail_electric rail_fast ship" speed="20.11" length="44.00" width="3.50" shape="-275.10,-273.03 -274.59,-273.83 -273.68,-275.54 -272.61,-278.30 -271.86,-281.20 -271.40,-284.17 -271.11,-288.25 -271.15,-292.35 -271.54,-297.51 -272.24,-302.66 -273.38,-308.81 -275.05,-315.95"/>
    </edge>
    <edge id=":94_0" function="internal">
        <lane id=":94_0_0" index="0" disallow="pedestrian tram rail_urban rail rail_electric rail_fast ship" speed="9.25" length="18.33" width="3.50" shape="-381.01,-330.48 -381.35,-331.49 -381.78,-332.47 -382.30,-333.37 -382.90,-334.20 -383.59,-334.93 -384.37,-335.56 -385.23,-336.09 -386.16,-336.51 -387.16,-336.82 -388.21,-337.05 -389.26,-337.18 -391.54,-337.22 -393.82,-337.00 -396.13,-336.59"/>
    </edge>
    <edge id=":94_1" function="internal">
        <lane id=":94_1_0" index="0" disallow="pedestrian tram rail_urban rail rail_electric rail_fast ship" speed="10.96" length="27.42" width="3.50" shape="-381.01,-330.48 -381.32,-331.81 -381.48,-333.20 -381.45,-334.62 -381.21,-336.04 -380.76,-337.40 -380.13,-338.67 -379.36,-339.83 -378.49,-340.86 -377.52,-341.81 -375.50,-343.38 -373.35,-344.68 -371.11,-345.79 -367.72,-347.15 -364.27,-348.27"/>
    </edge>
    <edge id=":94_2" function="internal">
        <lane id=":94_2_0" index="0" disallow="pedestrian tram rail_urban rail rail_electric rail_fast ship" speed="9.81" length="21.90" width="3.50" shape="-363.28,-344.91 -366.26,-343.95 -369.18,-342.82 -371.07,-341.93 -372.89,-340.91 -374.59,-339.70 -375.37,-339.02 -376.10,-338.27 -376.74,-337.44 -377.27,-336.55 -377.66,-335.58 -377.90,-334.57 -377.97,-333.53 -377.88,-332.49 -377.65,-331.47"/>
    </edge>
    <edge id=":94_3" function="internal">
        <lane id=":94_3_0" index="0" disallow="pedestrian tram rail_urban rail rail_electric rail_fast ship" speed="36.11" length="33.89" width="3.50" shape="-363.28,-344.91 -375.52,-341.51 -387.84,-338.44 -396.13,-336.59"/>
    </edge>
    <edge id=":94_4" function="internal">
        <lane id=":94_4_0" index="0" disallow="pedestrian tram rail_urban rail rail_electric rail_fast ship" speed="36.11" length="33.65" width="3.50" shape="-396.88,-340.00 -388.65,-341.85 -376.41,-344.89 -364.27,-348.27"/>
    </edge>
    <edge id=":94_5" function="internal">
        <lane id=":94_5_0" index="0" disallow="pedestrian tram rail_urban rail rail_electric rail_fast ship" speed="10.50" length="23.63" width="3.50" shape="-396.88,-340.01 -394.11,-340.49 -391.34,-340.74 -388.57,-340.66 -387.19,-340.46 -385.84,-340.15 -384.53,-339.69 -383.28,-339.09 -382.12,-338.33 -381.06,-337.43 -380.13,-336.40 -379.33,-335.27 -378.65,-334.06 -378.10,-332.79 -377.65,-331.47"/>
    </edge>
    <edge id=":95_0" function="internal">