<routes>
	<vehicle depart="0.1" departLane="0" departPos="61.531469898162754" departSpeed="0.0" id="35" type="bicycle">
		<route edges="9001 8998"/>
	</vehicle>
	<vehicle depart="0.1" departLane="0" departPos="60.02607356757448" departSpeed="0.0" id="37" type="passenger">
		<route edges="9001 8998"/>
	</vehicle>
	<vehicle depart="0.1" departLane="0" departPos="33.66662100298865" departSpeed="8.5177231" id="310" type="passenger">
		<route edges="9804 9002"/>
	</vehicle>
	<vehicle depart="0.1" departLane="0" departPos="70.02774134607442" departSpeed="0.0" id="30" type="truck">
		<route edges="9001 8998"/>
	</vehicle>
	<vehicle depart="0.1" departLane="0" departPos="9.056043104209259" departSpeed="0.33485085" id="320" type="truck">
		<route edges=":96_5 9805"/>
	</vehicle>
</routes>
