<routes>
	<vehicle depart="0.1" departLane="0" departPos="11.429425384296827" departSpeed="0.52419148" id="37" type="bicycle">
		<route edges=":21_5 4058"/>
	</vehicle>
	<vehicle depart="0.1" departLane="0" departPos="8.298098649213458" departSpeed="0.42609929" id="36" type="passenger">
		<route edges=":21_5 4058"/>
	</vehicle>
	<vehicle depart="0.1" departLane="0" departPos="30.440094491467235" departSpeed="2.3994122" id="38" type="passenger">
		<route edges=":21_10 4508"/>
	</vehicle>
	<vehicle depart="0.1" departLane="0" departPos="22.092226731898226" departSpeed="10.172597" id="314" type="passenger">
		<route edges=":21_1 4058"/>
	</vehicle>
	<vehicle depart="0.1" departLane="0" departPos="50.88910889863222" departSpeed="7.1470489" id="316" type="passenger">
		<route edges="3399 4058"/>
	</vehicle>
	<vehicle depart="0.1" departLane="0" departPos="7.021906144163765" departSpeed="2.3393059" id="317" type="passenger">
		<route edges=":21_10 4508"/>
	</vehicle>
	<vehicle depart="0.1" departLane="0" departPos="13.763239491767365" departSpeed="0.13356183" id="346" type="passenger">
		<route edges=":21_6 4508"/>
	</vehicle>
	<vehicle depart="0.1" departLane="0" departPos="2.5" departSpeed="1.2889254" id="350" type="passenger">
		<route edges=":21_7 3398"/>
	</vehicle>
	<vehicle depart="0.1" departLane="0" departPos="32.83047619679351" departSpeed="0.48660073" id="352" type="passenger">
		<route edges="4059 4508"/>
	</vehicle>
</routes>
