<!-- generated on Tue Feb  9 22:16:07 2021 by Eclipse SUMO netconvert Version 1.8.0
<configuration xmlns:xsi="http://www.w3.org/2001/XMLSchema-instance" xsi:noNamespaceSchemaLocation="http://sumo.dlr.de/xsd/netconvertConfiguration.xsd">

    <input>
        <node-files value="./converted_scenarios/scenario-factory/ITA_Empoli-7_1_I-1-1/ITA_Empoli-7_1_I-1-1.nod.xml"/>
        <edge-files value="./converted_scenarios/scenario-factory/ITA_Empoli-7_1_I-1-1/ITA_Empoli-7_1_I-1-1.edg.xml"/>
        <connection-files value="./converted_scenarios/scenario-factory/ITA_Empoli-7_1_I-1-1/ITA_Empoli-7_1_I-1-1.con.xml"/>
        <tllogic-files value="./converted_scenarios/scenario-factory/ITA_Empoli-7_1_I-1-1/ITA_Empoli-7_1_I-1-1.tll.xml"/>
        <type-files value="/home/zen/commonroad-interactive-benchmarks/install/commonroad-map-tool/crmapconverter/sumo_map/templates/DEU.typ.xml"/>
    </input>

    <output>
        <output-file value="./converted_scenarios/scenario-factory/ITA_Empoli-7_1_I-1-1/ITA_Empoli-7_1_I-1-1.net.xml"/>
    </output>

    <processing>
        <geometry.remove.keep-edges.explicit value="true"/>
        <geometry.avoid-overlap value="true"/>
        <offset.disable-normalization value="true"/>
    </processing>

    <junctions>
        <no-turnarounds value="true"/>
        <junctions.internal-link-detail value="20"/>
    </junctions>

    <report>
        <aggregate-warnings value="5"/>
    </report>

    <random_number>
        <seed value="1234"/>
    </random_number>

</configuration>
--><net xmlns:xsi="http://www.w3.org/2001/XMLSchema-instance" version="1.6" junctionCornerDetail="5" junctionLinkDetail="20" limitTurnSpeed="5.50" xsi:noNamespaceSchemaLocation="http://sumo.dlr.de/xsd/net_file.xsd">

    <location netOffset="0.00,0.00" convBoundary="92.55,-652.24,274.95,-502.07" origBoundary="91.71,-652.24,274.95,-500.50" projParameter="!"/>

    <type id="highway.bridleway" priority="1" speed="2.78" allow="pedestrian" oneway="1" width="2.00"/>
    <type id="highway.bus_guideway" priority="1" speed="27.78" allow="bus" oneway="1"/>
    <type id="highway.cycleway" priority="1" speed="8.33" allow="bicycle" oneway="0" width="1.00"/>
    <type id="highway.footway" priority="1" speed="2.78" allow="pedestrian" oneway="1" width="2.00"/>
    <type id="highway.ford" priority="1" speed="2.78" allow="army" oneway="0"/>
    <type id="highway.living_street" priority="2" speed="2.78" disallow="tram rail_urban rail rail_electric rail_fast ship" oneway="0"/>
    <type id="highway.motorway" priority="14" speed="39.44" allow="private emergency authority army vip passenger hov taxi bus coach delivery truck trailer motorcycle evehicle custom1 custom2" oneway="1"/>
    <type id="highway.motorway_link" priority="9" speed="22.22" allow="private emergency authority army vip passenger hov taxi bus coach delivery truck trailer motorcycle evehicle custom1 custom2" oneway="1"/>
    <type id="highway.path" priority="1" speed="2.78" allow="pedestrian bicycle" oneway="0" width="2.00"/>
    <type id="highway.pedestrian" priority="1" speed="2.78" allow="pedestrian" oneway="1" width="2.00"/>
    <type id="highway.primary" priority="12" speed="27.78" disallow="pedestrian tram rail_urban rail rail_electric rail_fast ship" oneway="0"/>
    <type id="highway.primary_link" priority="7" speed="22.22" disallow="pedestrian tram rail_urban rail rail_electric rail_fast ship" oneway="0"/>
    <type id="highway.raceway" priority="15" speed="83.33" allow="vip" oneway="0"/>
    <type id="highway.residential" priority="3" speed="13.89" disallow="pedestrian tram rail_urban rail rail_electric rail_fast ship" oneway="0"/>
    <type id="highway.secondary" priority="11" speed="27.78" disallow="pedestrian tram rail_urban rail rail_electric rail_fast ship" oneway="0"/>
    <type id="highway.secondary_link" priority="6" speed="22.22" disallow="pedestrian tram rail_urban rail rail_electric rail_fast ship" oneway="0"/>
    <type id="highway.service" priority="1" speed="5.56" allow="pedestrian delivery bicycle" oneway="0"/>
    <type id="highway.stairs" priority="1" speed="1.39" allow="pedestrian" oneway="1" width="2.00"/>
    <type id="highway.step" priority="1" speed="1.39" allow="pedestrian" oneway="1" width="2.00"/>
    <type id="highway.steps" priority="1" speed="1.39" allow="pedestrian" oneway="1" width="2.00"/>
    <type id="highway.tertiary" priority="10" speed="22.22" disallow="pedestrian tram rail_urban rail rail_electric rail_fast ship" oneway="0"/>
    <type id="highway.tertiary_link" priority="5" speed="22.22" disallow="pedestrian tram rail_urban rail rail_electric rail_fast ship" oneway="0"/>
    <type id="highway.track" priority="1" speed="5.56" allow="pedestrian motorcycle moped bicycle" oneway="0"/>
    <type id="highway.trunk" priority="13" speed="27.78" disallow="pedestrian bicycle tram rail_urban rail rail_electric rail_fast ship" oneway="0"/>
    <type id="highway.trunk_link" priority="8" speed="22.22" disallow="pedestrian bicycle tram rail_urban rail rail_electric rail_fast ship" oneway="0"/>
    <type id="highway.unclassified" priority="4" speed="13.89" disallow="pedestrian tram rail_urban rail rail_electric rail_fast ship" oneway="0"/>
    <type id="highway.unsurfaced" priority="1" speed="8.33" disallow="tram rail_urban rail rail_electric rail_fast ship" oneway="0"/>
    <type id="railway.highspeed" priority="21" speed="69.44" allow="rail_fast" oneway="1"/>
    <type id="railway.light_rail" priority="19" speed="27.78" allow="rail_urban" oneway="1"/>
    <type id="railway.preserved" priority="16" speed="27.78" allow="rail" oneway="1"/>
    <type id="railway.rail" priority="20" speed="44.44" allow="rail" oneway="1"/>
    <type id="railway.subway" priority="18" speed="27.78" allow="rail_urban" oneway="1"/>
    <type id="railway.tram" priority="17" speed="13.89" allow="tram" oneway="1"/>

    <edge id=":21_0" function="internal">
        <lane id=":21_0_0" index="0" disallow="pedestrian tram rail_urban rail rail_electric rail_fast ship" speed="11.42" length="28.41" width="3.50" shape="210.87,-592.43 207.50,-592.98 205.29,-593.12 203.10,-593.03 200.97,-592.69 198.91,-592.04 197.97,-591.62 197.05,-591.12 196.18,-590.54 195.37,-589.91 193.84,-588.38 192.54,-586.66 191.45,-584.76 190.54,-582.74 189.47,-579.51"/>
    </edge>
    <edge id=":21_1" function="internal">
        <lane id=":21_1_0" index="0" disallow="pedestrian tram rail_urban rail rail_electric rail_fast ship" speed="36.11" length="40.67" width="3.50" shape="210.87,-592.43 197.65,-595.46 187.56,-598.08 180.57,-600.17 175.65,-601.89 171.81,-603.52"/>
    </edge>
    <edge id=":21_2" function="internal">
        <lane id=":21_2_0" index="0" disallow="pedestrian tram rail_urban rail rail_electric rail_fast ship" speed="13.46" length="34.91" width="3.50" shape="210.87,-592.43 209.62,-592.74 207.26,-593.53 204.96,-594.61 202.81,-596.01 200.88,-597.70 199.20,-599.64 197.82,-601.77 196.71,-604.03 195.86,-606.36 195.22,-608.76 194.61,-612.34 194.32,-615.95 194.29,-619.57"/>
    </edge>
    <edge id=":21_3" function="internal">
        <lane id=":21_3_0" index="0" disallow="pedestrian tram rail_urban rail rail_electric rail_fast ship" speed="12.54" length="30.16" width="3.50" shape="197.79,-619.60 197.81,-616.25 198.05,-613.04 198.57,-609.87 199.10,-607.79 199.81,-605.77 200.72,-603.82 201.86,-602.01 203.23,-600.36 204.82,-598.92 206.60,-597.73 208.53,-596.80 210.56,-596.11 211.61,-595.86"/>
    </edge>
    <edge id=":21_4" function="internal">
        <lane id=":21_4_0" index="0" disallow="pedestrian tram rail_urban rail rail_electric rail_fast ship" speed="36.11" length="41.01" width="3.50" shape="197.79,-619.60 197.47,-615.29 196.53,-609.07 194.86,-600.85 192.16,-589.64 189.47,-579.51"/>
    </edge>
    <edge id=":21_5" function="internal">
        <lane id=":21_5_0" index="0" disallow="pedestrian tram rail_urban rail rail_electric rail_fast ship" speed="11.36" length="40.18" width="3.50" shape="197.79,-619.60 197.49,-614.85 197.01,-611.81 196.23,-608.83 195.69,-607.39 195.04,-605.99 194.25,-604.67 193.31,-603.45 192.21,-602.37 190.96,-601.47 189.59,-600.78 188.13,-600.29 186.61,-600.01 185.08,-599.90 183.54,-599.95 182.01,-600.12 179.00,-600.77 176.06,-601.71 171.81,-603.52"/>
    </edge>
    <edge id=":21_6" function="internal">
        <lane id=":21_6_0" index="0" disallow="pedestrian tram rail_urban rail rail_electric rail_fast ship" speed="10.30" length="32.75" width="3.50" shape="173.29,-606.68 177.01,-605.11 179.51,-604.30 182.06,-603.75 183.28,-603.62 184.52,-603.58 185.72,-603.66 186.87,-603.87 187.96,-604.23 188.96,-604.74 189.87,-605.39 190.68,-606.20 191.39,-607.12 192.01,-608.15 192.53,-609.27 192.96,-610.42 193.62,-612.94 194.03,-615.53 194.29,-619.57"/>
    </edge>
    <edge id=":21_7" function="internal">
        <lane id=":21_7_0" index="0" disallow="pedestrian tram rail_urban rail rail_electric rail_fast ship" speed="36.11" length="39.88" width="3.50" shape="173.29,-606.68 176.99,-605.13 181.77,-603.46 188.63,-601.41 198.57,-598.84 211.61,-595.86"/>
    </edge>
    <edge id=":21_8" function="internal">
        <lane id=":21_8_0" index="0" disallow="pedestrian tram rail_urban rail rail_electric rail_fast ship" speed="13.24" length="34.83" width="3.50" shape="173.29,-606.68 175.46,-605.60 178.57,-603.80 181.54,-601.72 183.43,-600.13 185.17,-598.37 186.75,-596.42 188.09,-594.28 189.15,-591.96 189.88,-589.51 190.26,-586.98 190.29,-584.45 190.01,-581.95 189.47,-579.51"/>
    </edge>
    <edge id=":21_9" function="internal">
        <lane id=":21_9_0" index="0" disallow="pedestrian tram rail_urban rail rail_electric rail_fast ship" speed="12.29" length="29.91" width="3.50" shape="186.10,-580.43 186.56,-582.52 186.78,-584.65 186.74,-586.78 186.40,-588.89 185.76,-590.93 184.83,-592.85 183.67,-594.64 182.30,-596.28 180.78,-597.78 179.13,-599.14 176.50,-600.96 173.72,-602.56 171.81,-603.52"/>
    </edge>
    <edge id=":21_10" function="internal">
        <lane id=":21_10_0" index="0" disallow="pedestrian tram rail_urban rail rail_electric rail_fast ship" speed="36.11" length="40.05" width="3.50" shape="186.10,-580.43 188.75,-590.43 191.41,-601.47 193.06,-609.53 193.98,-615.57 194.29,-619.57"/>
    </edge>
    <edge id=":21_11" function="internal">
        <lane id=":21_11_0" index="0" disallow="pedestrian tram rail_urban rail rail_electric rail_fast ship" speed="12.42" length="33.79" width="3.50" shape="186.10,-580.43 187.32,-584.14 188.39,-586.51 189.69,-588.76 191.25,-590.83 193.09,-592.67 194.11,-593.47 195.20,-594.19 196.34,-594.81 197.52,-595.34 200.00,-596.11 202.57,-596.53 205.16,-596.64 207.76,-596.48 211.61,-595.86"/>
    </edge>
    <edge id=":22_0" function="internal">
        <lane id=":22_0_0" index="0" disallow="pedestrian tram rail_urban rail rail_electric rail_fast ship" speed="9.39" length="18.24" width="3.50" shape="181.64,-554.45 180.55,-551.13 179.91,-548.32 179.57,-545.47 179.57,-543.16 179.88,-540.88 180.52,-538.67 181.42,-536.79"/>
    </edge>
    <edge id=":22_1" function="internal">
        <lane id=":22_1_0" index="0" disallow="pedestrian tram rail_urban rail rail_electric rail_fast ship" speed="7.79" length="14.85" width="3.50" shape="168.81,-544.98 169.16,-545.06 170.83,-545.77 172.36,-546.74 173.73,-547.93 175.29,-549.77 176.59,-551.80 177.91,-554.52 178.35,-555.64"/>
    </edge>
    <edge id=":22_2" function="internal">
        <lane id=":22_2_0" index="0" disallow="pedestrian tram rail_urban rail rail_electric rail_fast ship" speed="36.11" length="15.13" width="3.50" shape="166.82,-541.35 170.05,-539.62 180.26,-534.41"/>
        <lane id=":22_2_1" index="1" disallow="pedestrian tram rail_urban rail rail_electric rail_fast ship" speed="36.11" length="15.27" width="3.50" shape="165.15,-538.27 168.44,-536.51 178.72,-531.27"/>
    </edge>

    <edge id="3398" from="21" to="13" priority="3" type="highway.residential" spreadType="center" length="64.81" shape="192.26,-601.40 274.95,-582.12">
        <lane id="3398_0" index="0" disallow="pedestrian tram rail_urban rail rail_electric rail_fast ship" speed="36.11" length="64.81" width="3.50" customShape="1" shape="211.61,-595.86 243.28,-588.99 274.95,-582.12"/>
    </edge>
    <edge id="3399" from="19" to="21" priority="3" type="highway.residential" spreadType="center" length="64.81" shape="274.21,-578.70 191.47,-597.99">
        <lane id="3399_0" index="0" disallow="pedestrian tram rail_urban rail rail_electric rail_fast ship" speed="36.11" length="64.81" width="3.50" customShape="1" shape="274.21,-578.70 242.53,-585.57 210.87,-592.44"/>
    </edge>
    <edge id="4058" from="21" to="12" priority="3" type="highway.residential" spreadType="center" length="37.84" shape="191.25,-598.06 138.37,-621.22">
        <lane id="4058_0" index="0" disallow="pedestrian tram rail_urban rail rail_electric rail_fast ship" speed="36.11" length="37.84" width="3.50" customShape="1" shape="171.81,-603.52 164.59,-607.13 147.76,-616.31 138.37,-621.22"/>
    </edge>
    <edge id="4059" from="18" to="21" priority="3" type="highway.residential" spreadType="center" length="37.81" shape="139.96,-624.34 192.65,-601.27">
        <lane id="4059_0" index="0" disallow="pedestrian tram rail_urban rail rail_electric rail_fast ship" speed="36.11" length="37.81" width="3.50" customShape="1" shape="139.96,-624.34 149.35,-619.43 166.16,-610.26 173.37,-606.64"/>
    </edge>
    <edge id="4382" from="6" to="22" priority="3" type="highway.residential" spreadType="center" length="83.74">
        <lane id="4382_0" index="0" disallow="pedestrian tram rail_urban rail rail_electric rail_fast ship" speed="36.11" length="83.75" width="3.50" customShape="1" shape="93.38,-581.59 166.76,-541.22"/>
        <lane id="4382_1" index="1" disallow="pedestrian tram rail_urban rail rail_electric rail_fast ship" speed="36.11" length="83.74" width="3.50" customShape="1" shape="91.71,-578.52 165.08,-538.15"/>
    </edge>
    <edge id="4385" from="22" to="5" priority="3" type="highway.residential" spreadType="center" length="69.88">
        <lane id="4385_0" index="0" disallow="pedestrian tram rail_urban rail rail_electric rail_fast ship" speed="36.11" length="69.88" width="3.50" customShape="1" shape="180.21,-534.31 216.13,-516.77 243.01,-503.65"/>
        <lane id="4385_1" index="1" disallow="pedestrian tram rail_urban rail rail_electric rail_fast ship" speed="36.11" length="69.90" width="3.50" customShape="1" shape="178.67,-531.17 214.59,-513.63 241.48,-500.50"/>
    </edge>
    <edge id="4508" from="21" to="14" priority="3" type="highway.residential" spreadType="center" length="32.31" shape="190.15,-599.66 191.11,-651.68">
        <lane id="4508_0" index="0" disallow="pedestrian tram rail_urban rail rail_electric rail_fast ship" speed="36.11" length="32.31" width="3.50" customShape="1" shape="194.29,-619.57 194.25,-625.10 193.85,-631.66 193.02,-639.19 191.11,-651.68"/>
    </edge>
    <edge id="4509" from="20" to="21" priority="3" type="highway.residential" spreadType="center" length="32.85" shape="194.57,-652.24 193.65,-599.60">
        <lane id="4509_0" index="0" disallow="pedestrian tram rail_urban rail rail_electric rail_fast ship" speed="36.11" length="32.85" width="3.50" customShape="1" shape="194.57,-652.24 196.50,-639.58 197.35,-631.89 197.75,-625.18 197.79,-619.60"/>
    </edge>
    <edge id="4511" from="22" to="21" priority="3" type="highway.residential" spreadType="center" length="26.02" shape="174.10,-547.02 190.23,-600.19">
        <lane id="4511_0" index="0" disallow="pedestrian tram rail_urban rail rail_electric rail_fast ship" speed="36.11" length="26.02" width="3.50" customShape="1" shape="178.35,-555.64 179.75,-559.48 182.59,-568.19 186.11,-580.47"/>
    </edge>
    <edge id="4512" from="21" to="22" priority="3" type="highway.residential" spreadType="center" length="26.29" shape="193.58,-599.18 177.45,-546.00">
        <lane id="4512_0" index="0" disallow="pedestrian tram rail_urban rail rail_electric rail_fast ship" speed="36.11" length="26.29" width="3.50" customShape="1" shape="189.47,-579.51 185.93,-567.14 183.05,-558.31 181.63,-554.43"/>
    </edge>

    <junction id="12" type="dead_end" x="138.37" y="-621.22" incLanes="4058_0" intLanes="" shape="137.56,-619.67 139.18,-622.77" rightOfWay="edgePriority"/>
    <junction id="13" type="dead_end" x="274.95" y="-582.12" incLanes="3398_0" intLanes="" shape="275.32,-583.83 274.58,-580.41" rightOfWay="edgePriority"/>
    <junction id="14" type="dead_end" x="191.11" y="-651.68" incLanes="4508_0" intLanes="" shape="189.38,-651.42 192.84,-651.94" rightOfWay="edgePriority"/>
    <junction id="18" type="dead_end" x="139.96" y="-624.34" incLanes="" intLanes="" shape="139.15,-622.79 140.77,-625.89" rightOfWay="edgePriority"/>
    <junction id="19" type="dead_end" x="274.21" y="-578.70" incLanes="" intLanes="" shape="274.58,-580.41 273.84,-576.99" rightOfWay="edgePriority"/>
    <junction id="20" type="dead_end" x="194.57" y="-652.24" incLanes="" intLanes="" shape="192.84,-651.97 196.30,-652.50" rightOfWay="edgePriority"/>
    <junction id="21" type="priority" x="191.90" y="-599.69" incLanes="3399_0 4509_0 4059_0 4511_0" intLanes=":21_0_0 :21_1_0 :21_2_0 :21_3_0 :21_4_0 :21_5_0 :21_6_0 :21_7_0 :21_8_0 :21_9_0 :21_10_0 :21_11_0" shape="210.50,-590.73 211.98,-597.57 208.21,-598.92 205.13,-601.20 202.71,-604.41 200.98,-608.55 199.92,-613.62 199.53,-619.61 192.54,-619.56 191.95,-614.18 190.20,-610.09 187.41,-607.37 183.71,-606.10 179.25,-606.35 174.15,-608.21 171.02,-601.95 176.11,-599.01 180.06,-595.84 182.86,-592.45 184.53,-588.84 185.05,-585.01 184.43,-580.95 191.15,-579.03 192.88,-583.51 195.20,-586.98 198.13,-589.43 201.65,-590.88 205.77,-591.31">
        <request index="0" response="000000000000" foes="000100010000" cont="0"/>
        <request index="1" response="000000000000" foes="111100110000" cont="0"/>
        <request index="2" response="000011000000" foes="110011110000" cont="0"/>
        <request index="3" response="000010000000" foes="100010000000" cont="0"/>
        <request index="4" response="000110000111" foes="100110000111" cont="0"/>
        <request index="5" response="011110000110" foes="011110000110" cont="0"/>
        <request index="6" response="000000000000" foes="010000000100" cont="0"/>
        <request index="7" response="000000000000" foes="110000111100" cont="0"/>
        <request index="8" response="000000000011" foes="110000110011" cont="0"/>
        <request index="9" response="000000000010" foes="000000100010" cont="0"/>
        <request index="10" response="000111000110" foes="000111100110" cont="0"/>
        <request index="11" response="000110011110" foes="000110011110" cont="0"/>
    </junction>
    <junction id="22" type="priority" x="175.79" y="-546.56" incLanes="4512_0 4382_0 4382_1" intLanes=":22_0_0 :22_1_0 :22_2_0 :22_2_1" shape="177.90,-529.60 180.98,-535.89 179.64,-538.66 179.76,-541.25 180.41,-544.65 181.58,-548.85 183.28,-553.85 176.71,-556.24 174.90,-551.59 173.20,-547.89 171.62,-545.16 170.16,-543.40 168.82,-542.60 167.59,-542.76 164.24,-536.61">
        <request index="0" response="1100" foes="1100" cont="0"/>
        <request index="1" response="0000" foes="0000" cont="0"/>
        <request index="2" response="0000" foes="0001" cont="0"/>
        <request index="3" response="0000" foes="0001" cont="0"/>
    </junction>
    <junction id="5" type="dead_end" x="242.25" y="-502.07" incLanes="4385_0 4385_1" intLanes="" shape="243.78,-505.22 240.71,-498.93" rightOfWay="edgePriority"/>
    <junction id="6" type="dead_end" x="92.55" y="-580.05" incLanes="" intLanes="" shape="90.86,-576.99 94.24,-583.12" rightOfWay="edgePriority"/>

    <connection from="3399" to="4512" fromLane="0" toLane="0" contPos="-4.00" shape="210.87,-592.43 207.50,-592.98 205.29,-593.12 203.10,-593.03 200.97,-592.69 198.91,-592.04 197.97,-591.62 197.05,-591.12 196.18,-590.54 195.37,-589.91 193.84,-588.38 192.54,-586.66 191.45,-584.76 190.54,-582.74 189.47,-579.51" via=":21_0_0" dir="r" state="M"/>
    <connection from="3399" to="4058" fromLane="0" toLane="0" contPos="-4.00" shape="210.87,-592.43 197.65,-595.46 187.56,-598.08 180.57,-600.17 175.65,-601.89 171.81,-603.52" via=":21_1_0" dir="s" state="M"/>
    <connection from="3399" to="4508" fromLane="0" toLane="0" contPos="-4.00" shape="210.87,-592.43 209.62,-592.74 207.26,-593.53 204.96,-594.61 202.81,-596.01 200.88,-597.70 199.20,-599.64 197.82,-601.77 196.71,-604.03 195.86,-606.36 195.22,-608.76 194.61,-612.34 194.32,-615.95 194.29,-619.57" via=":21_2_0" dir="l" state="m"/>
    <connection from="4059" to="4508" fromLane="0" toLane="0" contPos="-4.00" shape="173.29,-606.68 177.01,-605.11 179.51,-604.30 182.06,-603.75 183.28,-603.62 184.52,-603.58 185.72,-603.66 186.87,-603.87 187.96,-604.23 188.96,-604.74 189.87,-605.39 190.68,-606.20 191.39,-607.12 192.01,-608.15 192.53,-609.27 192.96,-610.42 193.62,-612.94 194.03,-615.53 194.29,-619.57" via=":21_6_0" dir="r" state="M"/>
    <connection from="4059" to="3398" fromLane="0" toLane="0" contPos="-4.00" shape="173.29,-606.68 176.99,-605.13 181.77,-603.46 188.63,-601.41 198.57,-598.84 211.61,-595.86" via=":21_7_0" dir="s" state="M"/>
    <connection from="4059" to="4512" fromLane="0" toLane="0" contPos="-4.00" shape="173.29,-606.68 175.46,-605.60 178.57,-603.80 181.54,-601.72 183.43,-600.13 185.17,-598.37 186.75,-596.42 188.09,-594.28 189.15,-591.96 189.88,-589.51 190.26,-586.98 190.29,-584.45 190.01,-581.95 189.47,-579.51" via=":21_8_0" dir="l" state="m"/>
    <connection from="4382" to="4511" fromLane="0" toLane="0" contPos="-4.00" shape="154.71,-547.85 157.98,-546.25 160.83,-545.23 163.18,-544.70 165.59,-544.51 167.40,-544.65 169.16,-545.06 170.83,-545.77 172.36,-546.74 173.73,-547.93 175.29,-549.77 176.59,-551.80 177.91,-554.52 178.35,-555.64" via=":22_1_0" dir="r" state="M"/>
    <connection from="4382" to="4385" fromLane="0" toLane="0" contPos="-4.00" shape="154.71,-547.85 170.05,-539.62 185.57,-531.71 189.25,-529.90" via=":22_2_0" dir="s" state="M"/>
    <connection from="4382" to="4385" fromLane="1" toLane="1" contPos="-4.00" shape="153.04,-544.77 168.44,-536.51 184.02,-528.57 187.71,-526.76" via=":22_2_1" dir="s" state="M"/>
    <connection from="4509" to="3398" fromLane="0" toLane="0" contPos="-4.00" shape="197.79,-619.48 197.81,-616.25 198.05,-613.04 198.57,-609.87 199.10,-607.79 199.81,-605.77 200.72,-603.82 201.86,-602.01 203.23,-600.36 204.82,-598.92 206.60,-597.73 208.53,-596.80 210.56,-596.11 211.61,-595.86" via=":21_3_0" dir="r" state="m"/>
    <connection from="4509" to="4512" fromLane="0" toLane="0" contPos="-4.00" shape="197.79,-619.48 197.47,-615.29 196.53,-609.07 194.86,-600.85 192.16,-589.64 189.47,-579.51" via=":21_4_0" dir="s" state="m"/>
    <connection from="4509" to="4058" fromLane="0" toLane="0" contPos="-4.00" shape="197.79,-619.48 197.49,-614.85 197.01,-611.81 196.23,-608.83 195.69,-607.39 195.04,-605.99 194.25,-604.67 193.31,-603.45 192.21,-602.37 190.96,-601.47 189.59,-600.78 188.13,-600.29 186.61,-600.01 185.08,-599.90 183.54,-599.95 182.01,-600.12 179.00,-600.77 176.06,-601.71 171.81,-603.52" via=":21_5_0" dir="l" state="m"/>
    <connection from="4511" to="4058" fromLane="0" toLane="0" contPos="-4.00" shape="186.10,-580.43 186.56,-582.52 186.78,-584.65 186.74,-586.78 186.40,-588.89 185.76,-590.93 184.83,-592.85 183.67,-594.64 182.30,-596.28 180.78,-597.78 179.13,-599.14 176.50,-600.96 173.72,-602.56 171.81,-603.52" via=":21_9_0" dir="r" state="m"/>
    <connection from="4511" to="4508" fromLane="0" toLane="0" contPos="-4.00" shape="186.10,-580.43 188.75,-590.43 191.41,-601.47 193.06,-609.53 193.98,-615.57 194.29,-619.57" via=":21_10_0" dir="s" state="m"/>
    <connection from="4511" to="3398" fromLane="0" toLane="0" contPos="-4.00" shape="186.10,-580.43 187.32,-584.14 188.39,-586.51 189.69,-588.76 191.25,-590.83 193.09,-592.67 194.11,-593.47 195.20,-594.19 196.34,-594.81 197.52,-595.34 200.00,-596.11 202.57,-596.53 205.16,-596.64 207.76,-596.48 211.61,-595.86" via=":21_11_0" dir="l" state="m"/>
    <connection from="4512" to="4385" fromLane="0" toLane="0" contPos="-4.00" shape="181.63,-554.43 180.55,-551.13 179.91,-548.32 179.57,-545.47 179.57,-543.16 179.88,-540.88 180.52,-538.67 181.52,-536.59 182.84,-534.71 184.44,-533.06 186.26,-531.64 188.73,-530.16 189.25,-529.90" via=":22_0_0" dir="r" state="m"/>

    <connection from=":21_0" to="4512" fromLane="0" toLane="0" dir="r" state="M"/>
    <connection from=":21_1" to="4058" fromLane="0" toLane="0" dir="s" state="M"/>
    <connection from=":21_2" to="4508" fromLane="0" toLane="0" dir="l" state="M"/>
    <connection from=":21_3" to="3398" fromLane="0" toLane="0" dir="r" state="M"/>
    <connection from=":21_4" to="4512" fromLane="0" toLane="0" dir="s" state="M"/>
    <connection from=":21_5" to="4058" fromLane="0" toLane="0" dir="l" state="M"/>
    <connection from=":21_6" to="4508" fromLane="0" toLane="0" dir="r" state="M"/>
    <connection from=":21_7" to="3398" fromLane="0" toLane="0" dir="s" state="M"/>
    <connection from=":21_8" to="4512" fromLane="0" toLane="0" dir="l" state="M"/>
    <connection from=":21_9" to="4058" fromLane="0" toLane="0" dir="r" state="M"/>
    <connection from=":21_10" to="4508" fromLane="0" toLane="0" dir="s" state="M"/>
    <connection from=":21_11" to="3398" fromLane="0" toLane="0" dir="l" state="M"/>
    <connection from=":22_0" to="4385" fromLane="0" toLane="0" dir="r" state="M"/>
    <connection from=":22_1" to="4511" fromLane="0" toLane="0" dir="r" state="M"/>
    <connection from=":22_2" to="4385" fromLane="0" toLane="0" dir="s" state="M"/>
    <connection from=":22_2" to="4385" fromLane="1" toLane="1" dir="s" state="M"/>

</net>