<routes>
	<vehicle depart="0.1" departLane="0" departPos="19.17396174044985" departSpeed="8.6417" id="30" type="passenger">
		<route edges="1048 1068 1063 1023 1075 1027"/>
	</vehicle>
	<vehicle depart="0.1" departLane="0" departPos="83.97788078926581" departSpeed="1.5002" id="31" type="passenger">
		<route edges="1038 1089 1043 1073 1022"/>
	</vehicle>
	<vehicle depart="0.1" departLane="0" departPos="0" departSpeed="7.6898" id="32" type="passenger">
		<route edges="1044 1054 1034"/>
	</vehicle>
	<vehicle depart="0.1" departLane="0" departPos="0" departSpeed="7.0138" id="33" type="passenger">
		<route edges="1088 1043 1073 1022 1076"/>
	</vehicle>
	<vehicle depart="0.1" departLane="0" departPos="0" departSpeed="9.071" id="34" type="passenger">
		<route edges="1022 1076 1047 1060 1050"/>
	</vehicle>
	<vehicle depart="0.1" departLane="0" departPos="0" departSpeed="8.4283" id="35" type="passenger">
		<route edges="1049 1066 1048 1063 1023"/>
	</vehicle>
	<vehicle depart="0.1" departLane="0" departPos="9.892451465003155" departSpeed="8.7633" id="36" type="passenger">
		<route edges="1063 1023 1075 1027"/>
	</vehicle>
	<vehicle depart="0.1" departLane="0" departPos="53.468671729325614" departSpeed="2.9711" id="37" type="passenger">
		<route edges="1038 1089 1043 1073 1022"/>
	</vehicle>
	<vehicle depart="0.1" departLane="0" departPos="71.68503822648994" departSpeed="7.0202" id="38" type="passenger">
		<route edges="1035 1088 1082 1037"/>
	</vehicle>
	<vehicle depart="0.1" departLane="0" departPos="0" departSpeed="7.5038" id="39" type="passenger">
		<route edges="1053 1044 1054 1034"/>
	</vehicle>
	<vehicle depart="0.1" departLane="0" departPos="83.97788078926581" departSpeed="0.0" id="310" type="passenger">
		<route edges="1038 1089 1043 1073 1022"/>
	</vehicle>
	<vehicle depart="0.1" departLane="0" departPos="76.75444859132082" departSpeed="7.2393" id="311" type="passenger">
		<route edges="1042 1081 1025"/>
	</vehicle>
	<vehicle depart="0.1" departLane="0" departPos="57.18619399047769" departSpeed="6.9234" id="312" type="passenger">
		<route edges="1035 1088 1043 1073 1022 1076"/>
	</vehicle>
	<vehicle depart="0.1" departLane="0" departPos="41.06606410320282" departSpeed="4.0518" id="313" type="passenger">
		<route edges="1038 1089 1043 1073 1022"/>
	</vehicle>
	<vehicle depart="0.1" departLane="0" departPos="66.58313026364353" departSpeed="7.4068" id="314" type="passenger">
		<route edges="1033 1059 1050 1074 1025"/>
	</vehicle>
	<vehicle depart="0.1" departLane="0" departPos="83.97788078926581" departSpeed="0.2918" id="315" type="passenger">
		<route edges="1038 1089 1043 1073 1022"/>
	</vehicle>
	<vehicle depart="0.1" departLane="0" departPos="62.03005036840965" departSpeed="6.9455" id="316" type="passenger">
		<route edges="1042 1081 1025"/>
	</vehicle>
	<vehicle depart="0.1" departLane="0" departPos="0" departSpeed="8.9741" id="317" type="passenger">
		<route edges="1043 1085 1027"/>
	</vehicle>
	<vehicle depart="0.1" departLane="0" departPos="54.41989351980352" departSpeed="0.0" id="318" type="passenger">
		<route edges="1044 1054 1034"/>
	</vehicle>
	<vehicle depart="0.1" departLane="0" departPos="0" departSpeed="6.8707" id="319" type="passenger">
		<route edges="1022 1076 1047 1060 1050"/>
	</vehicle>
	<vehicle depart="0.1" departLane="0" departPos="0" departSpeed="7.3971" id="320" type="passenger">
		<route edges="1033 1059 1050 1074 1025"/>
	</vehicle>
	<vehicle depart="0.1" departLane="0" departPos="47.36640777117809" departSpeed="6.9257" id="321" type="passenger">
		<route edges="1042 1055 1049 1066 1048 1063 1023"/>
	</vehicle>
	<vehicle depart="0.1" departLane="0" departPos="43.040069933317376" departSpeed="6.7172" id="322" type="passenger">
		<route edges="1035 1088 1043 1073 1022 1076"/>
	</vehicle>
	<vehicle depart="0.1" departLane="0" departPos="36.10827784709673" departSpeed="7.1288" id="323" type="passenger">
		<route edges="1026 1078 1022 1076 1047 1060 1050"/>
	</vehicle>
	<vehicle depart="0.1" departLane="0" departPos="28.18868134858303" departSpeed="4.7282" id="324" type="passenger">
		<route edges="1038 1089 1043 1073 1022"/>
	</vehicle>
	<vehicle depart="0.1" departLane="0" departPos="0" departSpeed="7.1853" id="325" type="passenger">
		<route edges="1033 1059 1050 1074 1025"/>
	</vehicle>
	<vehicle depart="0.1" departLane="0" departPos="0" departSpeed="6.5961" id="326" type="passenger">
		<route edges="1035 1088 1043 1073 1022"/>
	</vehicle>
	<vehicle depart="0.1" departLane="0" departPos="0" departSpeed="4.949" id="327" type="passenger">
		<route edges="1038 1089 1043 1073 1022"/>
	</vehicle>
	<vehicle depart="0.1" departLane="0" departPos="0" departSpeed="8.5752" id="329" type="passenger">
		<route edges="1024 1071 1041"/>
	</vehicle>
	<vehicle depart="0.1" departLane="0" departPos="0" departSpeed="6.5295" id="330" type="passenger">
		<route edges="1033 1059 1050 1074 1025"/>
	</vehicle>
	<vehicle depart="0.1" departLane="0" departPos="0" departSpeed="5.9411" id="331" type="passenger">
		<route edges="1035 1088 1043 1073 1022"/>
	</vehicle>
	<vehicle depart="0.1" departLane="0" departPos="0" departSpeed="4.4492" id="332" type="passenger">
		<route edges="1038 1089 1043 1073 1022"/>
	</vehicle>
	<vehicle depart="0.1" departLane="0" departPos="11.170246772799512" departSpeed="5.3062" id="333" type="passenger">
		<route edges="1026 1078 1022 1076 1047 1060 1050"/>
	</vehicle>
	<vehicle depart="0.1" departLane="0" departPos="0" departSpeed="5.5266" id="334" type="passenger">
		<route edges="1033 1059 1050 1074 1025"/>
	</vehicle>
	<vehicle depart="0.1" departLane="0" departPos="0" departSpeed="7.3985" id="335" type="passenger">
		<route edges="1042 1081 1025"/>
	</vehicle>
	<vehicle depart="0.1" departLane="0" departPos="0" departSpeed="4.1133" id="336" type="passenger">
		<route edges="1035 1088 1043 1073 1022"/>
	</vehicle>
	<vehicle depart="0.1" departLane="0" departPos="0" departSpeed="5.1456" id="337" type="passenger">
		<route edges="1042 1081 1025"/>
	</vehicle>
	<vehicle depart="0.1" departLane="0" departPos="0" departSpeed="2.6849" id="338" type="passenger">
		<route edges="1090 1038 1089 1043 1073 1022"/>
	</vehicle>
	<vehicle depart="0.1" departLane="0" departPos="0" departSpeed="1.5748" id="339" type="passenger">
		<route edges="1026 1078 1022 1076 1047"/>
	</vehicle>
	<vehicle depart="0.1" departLane="0" departPos="0" departSpeed="2.7505" id="340" type="passenger">
		<route edges="1033 1059 1050 1074 1025"/>
	</vehicle>
	<vehicle depart="0.1" departLane="0" departPos="0" departSpeed="5.1402" id="341" type="passenger">
		<route edges="1024 1091 1049 1066 1048"/>
	</vehicle>
</routes>
