<?xml version="1.0" encoding="UTF-8"?>

<!-- generated on Fri Dec 18 17:02:13 2020 by Eclipse SUMO netconvert Version 1.8.0
<configuration xmlns:xsi="http://www.w3.org/2001/XMLSchema-instance" xsi:noNamespaceSchemaLocation="http://sumo.dlr.de/xsd/netconvertConfiguration.xsd">

    <input>
        <node-files value="./converted_scenarios/SUMO/DEU_Muc-29_1_I-1-1/nodes.net.xml"/>
        <edge-files value="./converted_scenarios/SUMO/DEU_Muc-29_1_I-1-1/edges.net.xml"/>
        <connection-files value="./converted_scenarios/SUMO/DEU_Muc-29_1_I-1-1/_connections.net.xml"/>
        <tllogic-files value="./converted_scenarios/SUMO/DEU_Muc-29_1_I-1-1/_tll.net.xml"/>
    </input>

    <output>
        <output-file value="./converted_scenarios/SUMO/DEU_Muc-29_1_I-1-1/DEU_Muc-29_1_I-1-1.net.xml"/>
    </output>

    <processing>
        <plain.extend-edge-shape value="true"/>
        <geometry.remove.keep-edges.explicit value="true"/>
        <geometry.avoid-overlap value="true"/>
        <offset.disable-normalization value="true"/>
    </processing>

    <junctions>
        <no-turnarounds value="true"/>
        <junctions.internal-link-detail value="20"/>
    </junctions>

    <report>
        <aggregate-warnings value="5"/>
    </report>

    <random_number>
        <seed value="1234"/>
    </random_number>

</configuration>
-->

<net version="1.6" junctionCornerDetail="5" junctionLinkDetail="20" limitTurnSpeed="5.50" xmlns:xsi="http://www.w3.org/2001/XMLSchema-instance" xsi:noNamespaceSchemaLocation="http://sumo.dlr.de/xsd/net_file.xsd">

    <location netOffset="0.00,0.00" convBoundary="-129.89,-132.83,135.79,216.89" origBoundary="-129.91,-132.83,135.79,216.89" projParameter="!"/>

    <edge id=":1_0" function="internal">
        <lane id=":1_0_0" index="0" disallow="bus truck rail_fast" speed="36.11" length="6.25" width="2.50" shape="-3.68,-0.52 -4.08,-0.29 -4.45,-0.08 -4.78,0.11 -5.08,0.28 -5.36,0.44 -5.61,0.58 -5.84,0.72 -6.07,0.86 -6.28,0.99 -6.49,1.12 -6.69,1.26 -6.90,1.41 -7.12,1.58 -7.35,1.75 -7.60,1.95 -7.87,2.17 -8.16,2.41 -8.48,2.68 -8.83,2.99"/>
    </edge>
    <edge id=":1_1" function="internal">
        <lane id=":1_1_0" index="0" disallow="rail_fast" speed="36.11" length="8.87" width="2.50" shape="-2.15,-2.84 -8.83,2.99"/>
    </edge>
    <edge id=":10_0" function="internal">
        <lane id=":10_0_0" index="0" disallow="bus truck rail_fast" speed="7.59" length="10.64" width="2.50" shape="5.16,4.60 4.52,3.92 3.89,3.29 3.29,2.71 2.71,2.16 2.15,1.67 1.61,1.21 1.09,0.80 0.59,0.44 0.11,0.12 -0.34,-0.15 -0.78,-0.38 -1.19,-0.57 -1.58,-0.71 -1.96,-0.81 -2.31,-0.86 -2.64,-0.87 -2.95,-0.83 -3.24,-0.75 -3.51,-0.62"/>
    </edge>
    <edge id=":10_1" function="internal">
        <lane id=":10_1_0" index="0" disallow="bus truck rail_fast" speed="9.00" length="10.72" width="2.50" shape="5.16,4.60 5.01,4.44 4.77,4.19 4.46,3.87 4.08,3.48 3.66,3.04 3.19,2.55 2.69,2.02 2.18,1.46 1.65,0.89 1.13,0.31 0.62,-0.26 0.13,-0.82 -0.32,-1.36 -0.72,-1.87 -1.07,-2.33 -1.35,-2.74 -1.55,-3.09 -1.66,-3.37 -1.67,-3.57"/>
    </edge>
    <edge id=":11_0" function="internal">
        <lane id=":11_0_0" index="0" disallow="bus truck rail_fast" speed="36.11" length="3.49" width="2.50" shape="4.03,0.35 4.23,0.52 4.41,0.66 4.58,0.79 4.74,0.91 4.88,1.02 5.01,1.11 5.13,1.20 5.25,1.29 5.36,1.37 5.47,1.46 5.58,1.54 5.69,1.63 5.81,1.73 5.93,1.84 6.06,1.96 6.20,2.09 6.35,2.24 6.51,2.41 6.69,2.59"/>
    </edge>
    <edge id=":11_1" function="internal">
        <lane id=":11_1_0" index="0" disallow="bus truck rail_fast" speed="15.29" length="10.47" width="2.50" shape="-2.19,-2.56 -1.47,-2.34 -0.81,-2.13 -0.21,-1.95 0.34,-1.77 0.85,-1.60 1.32,-1.43 1.76,-1.26 2.17,-1.08 2.56,-0.89 2.94,-0.68 3.31,-0.46 3.67,-0.21 4.04,0.07 4.43,0.38 4.82,0.73 5.24,1.12 5.69,1.56 6.17,2.05 6.69,2.59"/>
    </edge>
    <edge id=":13_0" function="internal">
        <lane id=":13_0_0" index="0" disallow="bus truck rail_fast" speed="36.11" length="8.59" width="2.50" shape="-119.31,128.38 -119.93,128.24 -120.50,128.13 -121.01,128.02 -121.48,127.93 -121.90,127.85 -122.30,127.78 -122.67,127.72 -123.02,127.68 -123.36,127.64 -123.70,127.61 -124.04,127.58 -124.40,127.56 -124.77,127.55 -125.17,127.54 -125.61,127.54 -126.08,127.54 -126.60,127.55 -127.18,127.55 -127.82,127.56"/>
    </edge>
    <edge id=":13_1" function="internal">
        <lane id=":13_1_0" index="0" disallow="bus truck rail_fast" speed="36.11" length="12.02" width="2.50" shape="-115.95,125.89 -116.70,126.05 -117.40,126.20 -118.07,126.35 -118.71,126.48 -119.32,126.61 -119.90,126.73 -120.47,126.84 -121.02,126.95 -121.57,127.05 -122.12,127.14 -122.67,127.22 -123.23,127.29 -123.80,127.35 -124.39,127.41 -125.01,127.46 -125.66,127.49 -126.34,127.52 -127.06,127.54 -127.82,127.56"/>
    </edge>
    <edge id=":13_2" function="internal">
        <lane id=":13_2_0" index="0" disallow="bus truck rail_fast" speed="11.63" length="11.06" width="2.50" shape="-117.68,124.23 -118.25,124.73 -118.79,125.18 -119.30,125.58 -119.78,125.93 -120.25,126.23 -120.70,126.49 -121.15,126.72 -121.60,126.91 -122.05,127.06 -122.50,127.19 -122.97,127.29 -123.46,127.37 -123.97,127.43 -124.51,127.48 -125.09,127.51 -125.70,127.53 -126.36,127.54 -127.06,127.55 -127.82,127.56"/>
    </edge>
    <edge id=":16_0" function="internal">
        <lane id=":16_0_0" index="0" disallow="bus truck rail_fast" speed="36.11" length="3.79" width="2.50" shape="-128.28,120.06 -124.49,119.90"/>
    </edge>
    <edge id=":16_1" function="internal">
        <lane id=":16_1_0" index="0" disallow="rail_fast" speed="36.11" length="3.79" width="2.50" shape="-128.25,122.56 -124.46,122.52"/>
    </edge>
    <edge id=":16_2" function="internal">
        <lane id=":16_2_0" index="0" disallow="bus truck rail_fast" speed="36.11" length="3.81" width="2.50" shape="-128.23,125.06 -124.42,125.10"/>
    </edge>
    <edge id=":17_0" function="internal">
        <lane id=":17_0_0" index="0" disallow="bus truck rail_fast" speed="36.11" length="6.27" width="2.50" shape="-113.69,127.19 -113.66,127.66 -113.63,128.08 -113.61,128.46 -113.59,128.81 -113.57,129.13 -113.55,129.42 -113.53,129.69 -113.51,129.95 -113.49,130.20 -113.46,130.45 -113.43,130.70 -113.40,130.95 -113.36,131.22 -113.31,131.51 -113.25,131.82 -113.19,132.16 -113.12,132.54 -113.03,132.95 -112.94,133.41"/>
    </edge>
    <edge id=":17_1" function="internal">
        <lane id=":17_1_0" index="0" disallow="bus truck rail_fast" speed="36.11" length="8.62" width="2.50" shape="-114.63,124.96 -112.94,133.41"/>
    </edge>
    <edge id=":17_2" function="internal">
        <lane id=":17_2_0" index="0" disallow="bus truck rail_fast" speed="8.36" length="9.54" width="2.50" shape="-118.41,126.17 -117.97,126.33 -117.55,126.51 -117.14,126.72 -116.76,126.95 -116.38,127.21 -116.03,127.49 -115.69,127.80 -115.37,128.13 -115.06,128.49 -114.77,128.87 -114.50,129.27 -114.25,129.70 -114.01,130.16 -113.79,130.64 -113.59,131.14 -113.40,131.67 -113.23,132.23 -113.08,132.81 -112.94,133.41"/>
    </edge>
    <edge id=":2_0" function="internal">
        <lane id=":2_0_0" index="0" disallow="rail_fast" speed="36.11" length="10.46" width="2.50" shape="-100.17,81.89 -108.08,88.73"/>
    </edge>
    <edge id=":2_1" function="internal">
        <lane id=":2_1_0" index="0" disallow="bus truck rail_fast" speed="6.51" length="9.64" width="2.50" shape="-100.17,81.89 -100.82,82.44 -101.44,82.94 -102.04,83.40 -102.62,83.81 -103.18,84.18 -103.71,84.51 -104.21,84.79 -104.70,85.03 -105.16,85.22 -105.59,85.37 -106.01,85.47 -106.40,85.53 -106.76,85.54 -107.11,85.51 -107.42,85.44 -107.72,85.32 -107.99,85.16 -108.24,84.95 -108.46,84.69"/>
    </edge>
    <edge id=":20_0" function="internal">
        <lane id=":20_0_0" index="0" disallow="bus truck rail_fast" speed="7.11" length="7.69" width="2.50" shape="-115.24,134.62 -115.37,134.04 -115.51,133.49 -115.65,132.96 -115.80,132.47 -115.96,132.00 -116.13,131.56 -116.31,131.15 -116.50,130.77 -116.69,130.42 -116.90,130.09 -117.11,129.79 -117.33,129.52 -117.56,129.28 -117.80,129.07 -118.04,128.88 -118.30,128.72 -118.56,128.59 -118.83,128.49 -119.11,128.42"/>
    </edge>
    <edge id=":20_1" function="internal">
        <lane id=":20_1_0" index="0" disallow="bus truck rail_fast" speed="36.11" length="11.02" width="2.50" shape="-115.24,134.62 -117.40,123.81"/>
    </edge>
    <edge id=":20_2" function="internal">
        <lane id=":20_2_0" index="0" disallow="bus truck rail_fast" speed="7.62" length="10.94" width="2.50" shape="-115.24,134.62 -115.43,133.66 -115.60,132.74 -115.74,131.87 -115.86,131.05 -115.96,130.27 -116.03,129.54 -116.07,128.86 -116.09,128.22 -116.09,127.62 -116.06,127.08 -116.01,126.57 -115.93,126.12 -115.83,125.70 -115.70,125.34 -115.55,125.02 -115.38,124.75 -115.18,124.52 -114.95,124.33 -114.71,124.20"/>
    </edge>
    <edge id=":21_0" function="internal">
        <lane id=":21_0_0" index="0" disallow="bus truck rail_fast" speed="36.11" length="6.93" width="2.50" shape="57.04,-52.21 57.44,-51.89 57.81,-51.60 58.14,-51.33 58.43,-51.09 58.71,-50.88 58.96,-50.68 59.20,-50.49 59.42,-50.32 59.65,-50.15 59.87,-49.99 60.09,-49.82 60.33,-49.66 60.57,-49.49 60.84,-49.31 61.13,-49.12 61.46,-48.91 61.81,-48.69 62.21,-48.44 62.65,-48.16"/>
    </edge>
    <edge id=":21_1" function="internal">
        <lane id=":21_1_0" index="0" disallow="bus truck rail_fast" speed="36.11" length="12.10" width="2.50" shape="51.68,-53.16 52.42,-52.93 53.10,-52.72 53.76,-52.50 54.37,-52.29 54.96,-52.09 55.53,-51.88 56.07,-51.66 56.60,-51.45 57.11,-51.22 57.62,-50.99 58.13,-50.75 58.64,-50.49 59.16,-50.22 59.68,-49.93 60.23,-49.62 60.79,-49.29 61.38,-48.94 61.99,-48.56 62.65,-48.16"/>
    </edge>
    <edge id=":21_2" function="internal">
        <lane id=":21_2_0" index="0" disallow="bus truck rail_fast" speed="14.35" length="11.31" width="2.50" shape="51.94,-50.99 52.70,-51.00 53.41,-51.00 54.07,-50.99 54.68,-50.97 55.27,-50.93 55.82,-50.89 56.34,-50.83 56.85,-50.75 57.34,-50.65 57.82,-50.53 58.29,-50.38 58.77,-50.21 59.26,-50.02 59.76,-49.79 60.28,-49.53 60.82,-49.24 61.39,-48.92 62.00,-48.56 62.65,-48.16"/>
    </edge>
    <edge id=":24_0" function="internal">
        <lane id=":24_0_0" index="0" disallow="bus truck rail_fast" speed="8.40" length="9.62" width="2.50" shape="61.03,-46.22 60.40,-46.61 59.78,-46.97 59.18,-47.30 58.60,-47.60 58.04,-47.87 57.49,-48.11 56.97,-48.32 56.46,-48.50 55.97,-48.65 55.50,-48.77 55.05,-48.87 54.61,-48.93 54.19,-48.96 53.80,-48.97 53.42,-48.94 53.05,-48.88 52.71,-48.80 52.38,-48.68 52.08,-48.54"/>
    </edge>
    <edge id=":24_1" function="internal">
        <lane id=":24_1_0" index="0" disallow="bus truck rail_fast" speed="36.11" length="10.23" width="2.50" shape="61.03,-46.22 60.39,-46.62 59.82,-46.98 59.29,-47.31 58.81,-47.61 58.37,-47.87 57.95,-48.12 57.56,-48.34 57.18,-48.54 56.81,-48.73 56.44,-48.91 56.06,-49.08 55.66,-49.24 55.24,-49.40 54.79,-49.56 54.30,-49.73 53.77,-49.91 53.18,-50.09 52.53,-50.30 51.81,-50.51"/>
    </edge>
    <edge id=":24_2" function="internal">
        <lane id=":24_2_0" index="0" disallow="bus truck rail_fast" speed="8.07" length="9.17" width="2.50" shape="61.03,-46.22 60.37,-46.64 59.75,-47.05 59.17,-47.45 58.62,-47.84 58.11,-48.22 57.63,-48.59 57.20,-48.95 56.79,-49.30 56.43,-49.64 56.10,-49.97 55.80,-50.29 55.55,-50.61 55.33,-50.91 55.14,-51.20 55.00,-51.49 54.89,-51.76 54.81,-52.03 54.77,-52.28 54.77,-52.53"/>
    </edge>
    <edge id=":25_0" function="internal">
        <lane id=":25_0_0" index="0" disallow="bus truck rail_fast" speed="36.11" length="2.96" width="2.50" shape="-98.70,-52.77 -98.48,-52.79 -98.28,-52.80 -98.10,-52.81 -97.94,-52.81 -97.79,-52.81 -97.65,-52.81 -97.53,-52.80 -97.40,-52.79 -97.29,-52.77 -97.17,-52.75 -97.05,-52.73 -96.93,-52.71 -96.80,-52.69 -96.67,-52.66 -96.52,-52.63 -96.36,-52.61 -96.18,-52.58 -95.98,-52.55 -95.76,-52.52"/>
    </edge>
    <edge id=":26_0" function="internal">
        <lane id=":26_0_0" index="0" disallow="bus truck rail_fast" speed="13.05" length="11.28" width="2.50" shape="40.14,-56.08 40.89,-55.92 41.58,-55.75 42.23,-55.57 42.84,-55.38 43.42,-55.20 43.96,-55.02 44.49,-54.84 44.99,-54.69 45.49,-54.55 45.97,-54.43 46.46,-54.34 46.95,-54.28 47.45,-54.27 47.97,-54.29 48.52,-54.36 49.08,-54.48 49.69,-54.66 50.33,-54.90 51.02,-55.21"/>
    </edge>
    <edge id=":26_1" function="internal">
        <lane id=":26_1_0" index="0" disallow="bus truck rail_fast" speed="36.11" length="11.71" width="2.50" shape="40.14,-56.08 40.89,-55.93 41.59,-55.80 42.25,-55.66 42.87,-55.54 43.46,-55.41 44.02,-55.29 44.56,-55.16 45.09,-55.04 45.61,-54.91 46.12,-54.78 46.64,-54.64 47.16,-54.50 47.69,-54.35 48.25,-54.19 48.83,-54.02 49.43,-53.84 50.08,-53.65 50.76,-53.44 51.49,-53.22"/>
    </edge>
    <edge id=":27_0" function="internal">
        <lane id=":27_0_0" index="0" disallow="bus truck rail_fast" speed="36.11" length="12.35" width="2.50" shape="51.62,-50.57 50.88,-50.79 50.19,-51.01 49.52,-51.20 48.89,-51.39 48.27,-51.57 47.68,-51.75 47.10,-51.91 46.53,-52.07 45.97,-52.22 45.41,-52.36 44.85,-52.51 44.27,-52.65 43.69,-52.79 43.09,-52.92 42.46,-53.06 41.81,-53.20 41.14,-53.34 40.42,-53.48 39.67,-53.62"/>
    </edge>
    <edge id=":27_1" function="internal">
        <lane id=":27_1_0" index="0" disallow="bus truck rail_fast" speed="36.11" length="11.24" width="2.50" shape="50.84,-52.85 50.08,-52.82 49.38,-52.79 48.72,-52.77 48.11,-52.75 47.54,-52.75 46.99,-52.74 46.47,-52.75 45.96,-52.76 45.47,-52.79 44.98,-52.82 44.48,-52.86 43.98,-52.92 43.46,-52.98 42.92,-53.06 42.35,-53.14 41.75,-53.24 41.10,-53.36 40.41,-53.48 39.67,-53.62"/>
    </edge>
    <edge id=":29_0" function="internal">
        <lane id=":29_0_0" index="0" disallow="bus truck rail_fast" speed="36.11" length="2.97" width="2.50" shape="117.44,-119.67 115.56,-117.37"/>
    </edge>
    <edge id=":3_0" function="internal">
        <lane id=":3_0_0" index="0" disallow="rail_fast" speed="36.11" length="3.00" width="2.50" shape="-104.62,82.43 -102.35,80.47"/>
    </edge>
    <edge id=":30_0" function="internal">
        <lane id=":30_0_0" index="0" disallow="bus truck rail_fast" speed="5.81" length="7.95" width="2.50" shape="60.78,-58.69 60.24,-58.15 59.73,-57.64 59.26,-57.15 58.82,-56.68 58.43,-56.24 58.07,-55.82 57.75,-55.42 57.47,-55.04 57.23,-54.68 57.02,-54.35 56.86,-54.03 56.73,-53.74 56.63,-53.48 56.58,-53.23 56.56,-53.01 56.59,-52.81 56.65,-52.63 56.74,-52.47 56.88,-52.34"/>
    </edge>
    <edge id=":30_1" function="internal">
        <lane id=":30_1_0" index="0" disallow="bus truck rail_fast" speed="36.11" length="11.78" width="2.50" shape="60.78,-58.69 52.18,-50.64"/>
    </edge>
    <edge id=":30_2" function="internal">
        <lane id=":30_2_0" index="0" disallow="bus truck rail_fast" speed="12.00" length="11.75" width="2.50" shape="60.78,-58.69 60.23,-58.15 59.72,-57.64 59.24,-57.15 58.78,-56.68 58.34,-56.24 57.91,-55.82 57.49,-55.43 57.07,-55.06 56.65,-54.72 56.22,-54.41 55.77,-54.12 55.31,-53.86 54.82,-53.63 54.30,-53.43 53.74,-53.26 53.14,-53.11 52.50,-53.00 51.80,-52.92 51.04,-52.86"/>
    </edge>
    <edge id=":31_0" function="internal">
        <lane id=":31_0_0" index="0" disallow="bus truck rail_fast" speed="10.17" length="8.63" width="2.50" shape="54.78,-52.73 54.83,-53.35 54.88,-53.91 54.95,-54.42 55.02,-54.89 55.10,-55.31 55.20,-55.70 55.32,-56.06 55.45,-56.40 55.60,-56.72 55.78,-57.02 55.97,-57.31 56.20,-57.61 56.44,-57.91 56.72,-58.21 57.03,-58.53 57.37,-58.87 57.75,-59.24 58.16,-59.63 58.61,-60.07"/>
    </edge>
    <edge id=":31_1" function="internal">
        <lane id=":31_1_0" index="0" disallow="bus truck rail_fast" speed="28.82" length="8.89" width="2.50" shape="51.20,-55.29 51.80,-55.58 52.34,-55.83 52.83,-56.06 53.28,-56.27 53.69,-56.46 54.07,-56.64 54.41,-56.81 54.74,-56.98 55.06,-57.16 55.36,-57.34 55.66,-57.53 55.96,-57.74 56.27,-57.97 56.59,-58.23 56.93,-58.52 57.30,-58.84 57.70,-59.20 58.14,-59.61 58.61,-60.07"/>
    </edge>
    <edge id=":31_2" function="internal">
        <lane id=":31_2_0" index="0" disallow="bus truck rail_fast" speed="36.11" length="10.07" width="2.50" shape="51.27,-53.18 58.61,-60.07"/>
    </edge>
    <edge id=":32_0" function="internal">
        <lane id=":32_0_0" index="0" disallow="bus truck rail_fast" speed="36.11" length="2.97" width="2.50" shape="113.62,-118.94 115.50,-121.23"/>
    </edge>
    <edge id=":33_0" function="internal">
        <lane id=":33_0_0" index="0" disallow="bus truck rail_fast" speed="36.11" length="6.39" width="2.50" shape="-108.59,84.54 -108.88,84.16 -109.14,83.82 -109.38,83.51 -109.60,83.23 -109.80,82.98 -109.98,82.74 -110.14,82.51 -110.29,82.30 -110.44,82.08 -110.57,81.87 -110.71,81.65 -110.84,81.42 -110.97,81.18 -111.10,80.91 -111.24,80.62 -111.39,80.31 -111.56,79.95 -111.73,79.56 -111.92,79.12"/>
    </edge>
    <edge id=":33_1" function="internal">
        <lane id=":33_1_0" index="0" disallow="bus truck rail_fast" speed="36.11" length="5.64" width="2.50" shape="-110.02,84.43 -110.15,84.03 -110.26,83.66 -110.36,83.33 -110.45,83.03 -110.53,82.76 -110.61,82.51 -110.68,82.28 -110.75,82.05 -110.83,81.84 -110.90,81.63 -110.97,81.42 -111.06,81.20 -111.14,80.97 -111.24,80.73 -111.35,80.46 -111.47,80.18 -111.60,79.86 -111.75,79.51 -111.92,79.12"/>
    </edge>
    <edge id=":34_0" function="internal">
        <lane id=":34_0_0" index="0" disallow="bus truck rail_fast" speed="36.11" length="3.28" width="2.50" shape="-105.47,-44.55 -104.69,-47.74"/>
    </edge>
    <edge id=":35_0" function="internal">
        <lane id=":35_0_0" index="0" disallow="bus truck rail_fast" speed="36.11" length="5.68" width="2.50" shape="7.42,122.75 7.37,123.17 7.32,123.55 7.28,123.89 7.24,124.20 7.21,124.49 7.18,124.75 7.15,125.00 7.13,125.23 7.11,125.46 7.10,125.68 7.09,125.91 7.08,126.14 7.08,126.39 7.08,126.65 7.09,126.94 7.09,127.25 7.11,127.60 7.12,127.98 7.14,128.40"/>
    </edge>
    <edge id=":35_1" function="internal">
        <lane id=":35_1_0" index="0" disallow="bus truck rail_fast" speed="12.17" length="7.34" width="2.50" shape="5.43,121.44 5.72,121.89 5.98,122.31 6.20,122.69 6.39,123.04 6.55,123.37 6.68,123.68 6.79,123.98 6.87,124.27 6.94,124.56 6.99,124.85 7.03,125.15 7.05,125.46 7.07,125.78 7.08,126.13 7.09,126.51 7.10,126.92 7.10,127.37 7.12,127.86 7.14,128.40"/>
    </edge>
    <edge id=":38_0" function="internal">
        <lane id=":38_0_0" index="0" disallow="bus truck rail_fast" speed="6.46" length="6.80" width="2.50" shape="4.64,128.54 4.63,128.34 4.62,128.09 4.61,127.78 4.59,127.42 4.57,127.03 4.54,126.60 4.51,126.15 4.47,125.69 4.42,125.22 4.37,124.76 4.30,124.30 4.23,123.86 4.15,123.45 4.06,123.07 3.97,122.73 3.86,122.45 3.74,122.22 3.60,122.06 3.46,121.97"/>
    </edge>
    <edge id=":38_1" function="internal">
        <lane id=":38_1_0" index="0" disallow="bus truck rail_fast" speed="9.37" length="7.72" width="2.50" shape="4.64,128.54 4.61,127.98 4.56,127.47 4.51,126.99 4.45,126.55 4.38,126.14 4.32,125.75 4.27,125.39 4.23,125.05 4.21,124.72 4.20,124.40 4.22,124.08 4.27,123.77 4.34,123.45 4.46,123.13 4.61,122.79 4.81,122.45 5.05,122.08 5.35,121.68 5.70,121.26"/>
    </edge>
    <edge id=":39_0" function="internal">
        <lane id=":39_0_0" index="0" disallow="bus truck rail_fast" speed="36.11" length="10.22" width="2.50" shape="51.90,-48.44 51.24,-48.09 50.63,-47.77 50.09,-47.48 49.59,-47.22 49.14,-46.97 48.72,-46.74 48.32,-46.51 47.95,-46.30 47.60,-46.08 47.25,-45.85 46.91,-45.62 46.56,-45.37 46.20,-45.10 45.83,-44.81 45.42,-44.48 44.99,-44.12 44.52,-43.73 44.01,-43.28 43.44,-42.79"/>
    </edge>
    <edge id=":39_1" function="internal">
        <lane id=":39_1_0" index="0" disallow="bus truck rail_fast" speed="36.11" length="11.55" width="2.50" shape="52.03,-50.50 43.44,-42.79"/>
    </edge>
    <edge id=":4_0" function="internal">
        <lane id=":4_0_0" index="0" disallow="rail_fast" speed="36.11" length="8.64" width="2.50" shape="-10.42,1.05 -3.91,-4.63"/>
    </edge>
    <edge id=":4_1" function="internal">
        <lane id=":4_1_0" index="0" disallow="bus truck rail_fast" speed="8.40" length="9.15" width="2.50" shape="-10.42,1.05 -9.87,0.59 -9.34,0.16 -8.82,-0.24 -8.32,-0.61 -7.83,-0.96 -7.35,-1.27 -6.89,-1.55 -6.44,-1.80 -6.00,-2.03 -5.58,-2.22 -5.17,-2.38 -4.77,-2.52 -4.39,-2.62 -4.02,-2.70 -3.67,-2.74 -3.33,-2.75 -3.00,-2.74 -2.68,-2.69 -2.38,-2.62"/>
    </edge>
    <edge id=":40_0" function="internal">
        <lane id=":40_0_0" index="0" disallow="bus truck rail_fast" speed="6.62" length="9.96" width="2.50" shape="5.14,-9.22 4.56,-8.70 4.03,-8.19 3.55,-7.68 3.13,-7.19 2.75,-6.70 2.42,-6.22 2.14,-5.75 1.91,-5.29 1.73,-4.84 1.60,-4.40 1.52,-3.97 1.49,-3.54 1.51,-3.13 1.58,-2.73 1.70,-2.33 1.87,-1.94 2.09,-1.56 2.36,-1.19 2.68,-0.83"/>
    </edge>
    <edge id=":40_1" function="internal">
        <lane id=":40_1_0" index="0" disallow="rail_fast" speed="36.11" length="9.49" width="2.50" shape="5.14,-9.22 -2.00,-2.97"/>
    </edge>
    <edge id=":41_0" function="internal">
        <lane id=":41_0_0" index="0" disallow="bus truck rail_fast" speed="12.69" length="9.16" width="2.50" shape="-1.62,-3.76 -1.44,-4.41 -1.26,-4.99 -1.09,-5.51 -0.92,-5.98 -0.75,-6.41 -0.57,-6.80 -0.39,-7.15 -0.20,-7.48 0.01,-7.79 0.23,-8.08 0.47,-8.37 0.74,-8.65 1.03,-8.94 1.35,-9.23 1.70,-9.55 2.08,-9.88 2.51,-10.25 2.97,-10.65 3.48,-11.09"/>
    </edge>
    <edge id=":41_1" function="internal">
        <lane id=":41_1_0" index="0" disallow="rail_fast" speed="36.11" length="9.62" width="2.50" shape="-3.76,-4.76 3.48,-11.09"/>
    </edge>
    <edge id=":42_0" function="internal">
        <lane id=":42_0_0" index="0" disallow="bus truck rail_fast" speed="36.11" length="12.53" width="2.50" shape="41.80,-44.68 51.12,-53.05"/>
    </edge>
    <edge id=":42_1" function="internal">
        <lane id=":42_1_0" index="0" disallow="bus truck rail_fast" speed="12.37" length="12.18" width="2.50" shape="41.80,-44.68 42.38,-45.19 42.91,-45.70 43.42,-46.20 43.89,-46.69 44.35,-47.16 44.79,-47.62 45.23,-48.06 45.66,-48.47 46.09,-48.86 46.53,-49.23 46.98,-49.57 47.45,-49.88 47.94,-50.15 48.47,-50.39 49.03,-50.60 49.63,-50.76 50.28,-50.88 50.98,-50.96 51.74,-50.99"/>
    </edge>
    <edge id=":44_0" function="internal">
        <lane id=":44_0_0" index="0" disallow="bus truck rail_fast" speed="36.11" length="2.97" width="2.50" shape="124.45,-127.47 122.40,-125.32"/>
    </edge>
    <edge id=":45_0" function="internal">
        <lane id=":45_0_0" index="0" disallow="bus truck rail_fast" speed="36.11" length="0.27" width="2.50" shape="121.52,-128.05 121.70,-128.24"/>
    </edge>
    <edge id=":47_0" function="internal">
        <lane id=":47_0_0" index="0" disallow="bus truck rail_fast" speed="36.11" length="2.94" width="2.50" shape="-110.84,91.11 -113.03,93.07"/>
    </edge>
    <edge id=":48_0" function="internal">
        <lane id=":48_0_0" index="0" disallow="bus truck rail_fast" speed="9.05" length="10.71" width="2.50" shape="-117.39,111.42 -117.19,112.33 -116.99,113.20 -116.79,114.02 -116.59,114.80 -116.38,115.53 -116.18,116.22 -115.97,116.86 -115.76,117.46 -115.56,118.02 -115.34,118.53 -115.13,118.99 -114.92,119.41 -114.70,119.78 -114.48,120.11 -114.27,120.40 -114.04,120.64 -113.82,120.83 -113.60,120.98 -113.37,121.09"/>
    </edge>
    <edge id=":48_1" function="internal">
        <lane id=":48_1_0" index="0" disallow="bus truck rail_fast" speed="36.11" length="13.62" width="2.50" shape="-117.39,111.42 -114.66,124.76"/>
    </edge>
    <edge id=":48_2" function="internal">
        <lane id=":48_2_0" index="0" disallow="bus truck rail_fast" speed="9.75" length="13.05" width="2.50" shape="-117.39,111.42 -117.17,112.51 -116.97,113.55 -116.80,114.54 -116.66,115.49 -116.54,116.39 -116.44,117.24 -116.37,118.05 -116.33,118.81 -116.31,119.52 -116.32,120.19 -116.36,120.81 -116.41,121.39 -116.50,121.91 -116.61,122.39 -116.74,122.83 -116.90,123.22 -117.09,123.56 -117.30,123.85 -117.54,124.10"/>
    </edge>
    <edge id=":49_0" function="internal">
        <lane id=":49_0_0" index="0" disallow="bus truck rail_fast" speed="36.11" length="11.22" width="2.50" shape="-117.44,123.62 -119.68,112.62"/>
    </edge>
    <edge id=":49_1" function="internal">
        <lane id=":49_1_0" index="0" disallow="bus truck rail_fast" speed="14.23" length="11.16" width="2.50" shape="-115.03,122.50 -115.56,121.95 -116.03,121.43 -116.46,120.94 -116.84,120.47 -117.17,120.02 -117.47,119.58 -117.74,119.15 -117.98,118.71 -118.19,118.27 -118.38,117.83 -118.55,117.37 -118.71,116.89 -118.85,116.39 -118.99,115.86 -119.12,115.30 -119.25,114.70 -119.39,114.06 -119.53,113.36 -119.68,112.62"/>
    </edge>
    <edge id=":49_2" function="internal">
        <lane id=":49_2_0" index="0" disallow="bus truck rail_fast" speed="6.35" length="8.46" width="2.50" shape="-122.60,119.54 -122.18,119.41 -121.79,119.26 -121.43,119.08 -121.09,118.88 -120.79,118.65 -120.52,118.39 -120.28,118.10 -120.07,117.79 -119.88,117.46 -119.73,117.09 -119.61,116.70 -119.51,116.28 -119.45,115.84 -119.41,115.37 -119.41,114.87 -119.43,114.35 -119.49,113.80 -119.57,113.22 -119.68,112.62"/>
    </edge>
    <edge id=":50_0" function="internal">
        <lane id=":50_0_0" index="0" disallow="bus truck rail_fast" speed="7.55" length="8.39" width="2.50" shape="-114.73,91.24 -114.19,90.73 -113.68,90.24 -113.21,89.77 -112.76,89.31 -112.35,88.87 -111.97,88.45 -111.62,88.05 -111.30,87.67 -111.02,87.30 -110.77,86.95 -110.55,86.62 -110.36,86.31 -110.21,86.01 -110.09,85.74 -110.00,85.48 -109.94,85.24 -109.92,85.01 -109.92,84.81 -109.96,84.62"/>
    </edge>
    <edge id=":50_1" function="internal">
        <lane id=":50_1_0" index="0" disallow="bus truck rail_fast" speed="36.11" length="9.91" width="2.50" shape="-114.73,91.24 -107.27,84.72"/>
    </edge>
    <edge id=":51_0" function="internal">
        <lane id=":51_0_0" index="0" disallow="bus truck rail_fast" speed="23.41" length="7.04" width="2.50" shape="3.27,121.92 2.76,121.77 2.31,121.63 1.90,121.51 1.53,121.40 1.18,121.30 0.86,121.21 0.57,121.14 0.28,121.07 0.00,121.02 -0.27,120.98 -0.55,120.94 -0.84,120.91 -1.15,120.90 -1.48,120.89 -1.83,120.88 -2.22,120.89 -2.65,120.90 -3.12,120.92 -3.64,120.94"/>
    </edge>
    <edge id=":51_1" function="internal">
        <lane id=":51_1_0" index="0" disallow="bus truck rail_fast" speed="36.11" length="9.06" width="2.50" shape="5.41,120.61 -3.64,120.94"/>
    </edge>
    <edge id=":52_0" function="internal">
        <lane id=":52_0_0" index="0" disallow="bus truck rail_fast" speed="6.03" length="8.14" width="2.50" shape="-106.38,124.84 -107.15,124.86 -107.87,124.89 -108.55,124.93 -109.18,124.98 -109.78,125.04 -110.33,125.11 -110.84,125.19 -111.31,125.28 -111.74,125.39 -112.13,125.50 -112.47,125.62 -112.77,125.76 -113.03,125.90 -113.25,126.06 -113.42,126.22 -113.55,126.40 -113.64,126.59 -113.69,126.78 -113.70,126.99"/>
    </edge>
    <edge id=":52_1" function="internal">
        <lane id=":52_1_0" index="0" disallow="bus truck rail_fast" speed="36.11" length="9.45" width="2.50" shape="-106.38,124.84 -107.09,124.85 -107.73,124.86 -108.30,124.87 -108.82,124.88 -109.30,124.90 -109.74,124.91 -110.15,124.93 -110.54,124.96 -110.92,124.99 -111.29,125.03 -111.67,125.08 -112.05,125.13 -112.46,125.20 -112.89,125.27 -113.36,125.36 -113.87,125.46 -114.44,125.57 -115.06,125.70 -115.75,125.85"/>
    </edge>
    <edge id=":52_2" function="internal">
        <lane id=":52_2_0" index="0" disallow="bus truck rail_fast" speed="9.66" length="9.01" width="2.50" shape="-106.38,124.84 -107.03,124.84 -107.65,124.83 -108.26,124.81 -108.84,124.78 -109.40,124.73 -109.93,124.67 -110.45,124.59 -110.94,124.50 -111.41,124.40 -111.86,124.28 -112.28,124.15 -112.69,124.01 -113.07,123.85 -113.43,123.69 -113.77,123.50 -114.08,123.31 -114.37,123.10 -114.65,122.87 -114.89,122.64"/>
    </edge>
    <edge id=":53_0" function="internal">
        <lane id=":53_0_0" index="0" disallow="bus truck rail_fast" speed="18.69" length="6.74" width="2.50" shape="-113.19,121.16 -112.72,121.33 -112.29,121.49 -111.91,121.63 -111.55,121.75 -111.23,121.86 -110.93,121.96 -110.65,122.04 -110.38,122.11 -110.11,122.18 -109.85,122.23 -109.58,122.27 -109.31,122.30 -109.01,122.32 -108.70,122.34 -108.36,122.35 -107.99,122.36 -107.58,122.36 -107.13,122.35 -106.62,122.34"/>
    </edge>
    <edge id=":53_1" function="internal">
        <lane id=":53_1_0" index="0" disallow="bus truck rail_fast" speed="36.11" length="10.49" width="2.50" shape="-117.12,122.46 -106.62,122.34"/>
    </edge>
    <edge id=":53_2" function="internal">
        <lane id=":53_2_0" index="0" disallow="bus truck rail_fast" speed="18.43" length="8.20" width="2.50" shape="-114.52,124.12 -113.97,123.87 -113.46,123.65 -113.00,123.46 -112.59,123.28 -112.20,123.13 -111.84,122.99 -111.50,122.87 -111.18,122.77 -110.86,122.69 -110.54,122.61 -110.22,122.55 -109.88,122.50 -109.53,122.46 -109.14,122.43 -108.73,122.40 -108.28,122.38 -107.78,122.37 -107.23,122.36 -106.62,122.34"/>
    </edge>
    <edge id=":54_0" function="internal">
        <lane id=":54_0_0" index="0" disallow="bus truck rail_fast" speed="36.11" length="9.05" width="2.50" shape="-3.73,118.44 5.32,118.11"/>
    </edge>
    <edge id=":54_1" function="internal">
        <lane id=":54_1_0" index="0" disallow="bus truck rail_fast" speed="8.62" length="9.89" width="2.50" shape="-3.73,118.44 -3.01,118.42 -2.31,118.41 -1.65,118.43 -1.01,118.46 -0.40,118.52 0.19,118.59 0.75,118.68 1.28,118.80 1.78,118.93 2.26,119.08 2.70,119.24 3.13,119.43 3.52,119.64 3.89,119.86 4.23,120.11 4.54,120.37 4.83,120.65 5.09,120.96 5.32,121.28"/>
    </edge>
    <edge id=":6_0" function="internal">
        <lane id=":6_0_0" index="0" disallow="bus truck rail_fast" speed="6.38" length="7.85" width="2.50" shape="14.53,120.30 13.83,120.33 13.16,120.36 12.53,120.41 11.94,120.47 11.39,120.54 10.87,120.61 10.38,120.70 9.94,120.80 9.53,120.91 9.16,121.03 8.82,121.16 8.52,121.30 8.26,121.44 8.03,121.60 7.84,121.77 7.69,121.95 7.57,122.14 7.49,122.34 7.45,122.55"/>
    </edge>
    <edge id=":6_1" function="internal">