<!-- generated on 2020-12-18 17:02:13.106346 by ipykernel_launcher.py v1_2_0+5214-53edc58fcd
-->
<edges>
	<edge from="1" function="normal" id="1022" length="124.56348903630021" numLanes="1" priority="1" speed="36.11111111111111" spreadType="center" to="2">
		<lane allow="moped bicycle pedestrian custom1 trailer evehicle rail_urban ship private truck vip custom2 authority delivery rail_electric taxi tram army hov coach motorcycle passenger bus rail emergency" index="0" length="124.56348903630021" shape="-7.6004000000000005,1.9239000000000002 -54.71835,42.627449999999996 -101.863,83.35255000000001" speed="36.11111111111111" width="2.498281531373105"/>
	</edge>
	<edge from="3" function="normal" id="1023" length="124.56032758631015" numLanes="1" priority="1" speed="36.11111111111111" spreadType="center" to="4">
		<lane allow="moped bicycle pedestrian custom1 trailer evehicle rail_urban ship private truck vip custom2 authority delivery rail_electric taxi tram army hov coach motorcycle passenger bus rail emergency" index="0" length="124.56032758631015" shape="-103.48165,81.44825 -56.35365,40.736450000000005 -9.2215,0.021600000000000008" speed="36.11111111111111" width="2.499000136054418"/>
	</edge>
	<edge from="5" function="normal" id="1024" length="80.27492450747182" numLanes="1" priority="1" speed="36.11111111111111" spreadType="center" to="6">
		<lane allow="moped bicycle pedestrian custom1 trailer evehicle rail_urban ship private vip custom2 authority delivery rail_electric taxi tram army hov coach motorcycle passenger rail emergency" index="0" length="80.27492450747182" shape="93.0213,117.12440000000001 25.42635,119.9596 12.811900000000001,120.35165" speed="36.11111111111111" width="2.4990992317233007"/>
	</edge>
	<edge from="7" function="normal" id="1025" length="80.26753408221572" numLanes="1" priority="1" speed="36.11111111111111" spreadType="center" to="8">
		<lane allow="moped bicycle pedestrian custom1 trailer evehicle rail_urban ship private vip custom2 authority delivery rail_electric taxi tram army hov coach motorcycle passenger rail emergency" index="0" length="80.26753408221572" shape="12.714400000000001,117.85405 25.3428,117.461 92.91640000000001,114.6266" speed="36.11111111111111" width="2.4999989839997974"/>
	</edge>
	<edge from="9" function="normal" id="1026" length="47.4090222974992" numLanes="1" priority="1" speed="36.11111111111111" spreadType="center" to="10">
		<lane allow="moped bicycle pedestrian custom1 trailer evehicle rail_urban ship private vip custom2 authority delivery rail_electric taxi tram army hov coach motorcycle passenger rail emergency" index="0" length="47.4090222974992" shape="7.495,47.2343 7.5169,46.23585 7.8527,41.254450000000006 8.934800000000001,32.8351 9.746500000000001,26.39465 10.04795,21.9114 10.012599999999999,18.41695 9.6539,14.9414 9.037099999999999,12.0107 8.1109,9.162849999999999 7.29505,7.34125 6.18,5.6872 4.81465,4.2314 2.5128500000000003,2.3397" speed="36.11111111111111" width="2.49956393997033"/>
	</edge>
	<edge from="11" function="normal" id="1027" length="49.74877881502953" numLanes="1" priority="1" speed="36.11111111111111" spreadType="center" to="12">
		<lane allow="moped bicycle pedestrian custom1 trailer evehicle rail_urban ship private vip custom2 authority delivery rail_electric taxi tram army hov coach motorcycle passenger rail emergency" index="0" length="49.74877881502953" shape="4.02785,0.35235 6.469049999999999,2.35865 7.99225,3.9604999999999997 9.283000000000001,5.79335 10.25535,7.80185 11.2985,10.827950000000001 12.01615,13.9483 12.46325,17.6281 12.55705,21.3197 12.29215,26.0094 11.48395,32.65805 10.3656,41.2499 10.01615,46.28645 9.99455,47.2814" speed="36.11111111111111" width="2.4995464588600873"/>
	</edge>
	<edge from="13" function="normal" id="1028" length="3.5332218935353987" numLanes="1" priority="1" speed="36.11111111111111" spreadType="center" to="14">
		<lane allow="moped bicycle pedestrian custom1 trailer evehicle rail_urban ship private truck vip custom2 authority delivery rail_electric taxi tram army hov coach motorcycle passenger bus rail emergency" index="0" length="3.5332218935353987" shape="-126.30645000000001,127.54165 -128.0678,127.5592 -129.8395,127.57650000000001" speed="36.11111111111111" width="2.499919078690356"/>
	</edge>
	<edge from="15" function="normal" id="1031" length="3.5322180010047135" numLanes="3" priority="1" speed="36.11111111111111" spreadType="center" to="16">
		<lane allow="moped bicycle pedestrian custom1 trailer evehicle rail_urban ship private truck vip custom2 authority delivery rail_electric taxi tram army hov coach motorcycle passenger bus rail emergency" index="0" length="3.5322180010047135" shape="-129.9127,120.07685000000001 -128.1411,120.05955 -126.37979999999999,120.0427" speed="36.11111111111111" width="2.4987360004610397"/>
		<lane allow="moped bicycle pedestrian custom1 trailer evehicle rail_urban ship private truck vip custom2 authority delivery rail_electric taxi tram army hov coach motorcycle passenger bus rail emergency" index="1" length="3.5322180010047135" shape="-129.88830000000002,122.57675 -128.11669999999998,122.55945 -126.32835,122.54175000000001" speed="36.11111111111111" width="2.5000190739272337"/>
		<lane allow="moped bicycle pedestrian custom1 trailer evehicle rail_urban ship private truck vip custom2 authority delivery rail_electric taxi tram army hov coach motorcycle passenger bus rail emergency" index="2" length="3.5322180010047135" shape="-129.8639,125.07665 -128.09225,125.05935 -126.33185,125.0422" speed="36.11111111111111" width="2.500019073927234"/>
	</edge>
	<edge from="17" function="normal" id="1032" length="85.42117315511689" numLanes="1" priority="1" speed="36.11111111111111" spreadType="center" to="18">
		<lane allow="moped bicycle pedestrian custom1 trailer evehicle rail_urban ship private vip custom2 authority delivery rail_electric taxi tram army hov coach motorcycle passenger rail emergency" index="0" length="85.42117315511689" shape="-113.26215,131.86110000000002 -112.64965,134.80935 -110.73845,147.2253 -108.44805,164.66295000000002 -104.63364999999999,198.6196 -102.54575,216.58885" speed="36.11111111111111" width="2.497237579806936"/>
	</edge>
	<edge from="19" function="normal" id="1033" length="85.1930634215592" numLanes="1" priority="1" speed="36.11111111111111" spreadType="center" to="20">
		<lane allow="moped bicycle pedestrian custom1 trailer evehicle rail_urban ship private vip custom2 authority delivery rail_electric taxi tram army hov coach motorcycle passenger rail emergency" index="0" length="85.1930634215592" shape="-105.0281,216.8854 -107.1139,198.93555 -110.9219,165.02904999999998 -113.20485,147.63755 -115.10409999999999,135.28215 -115.70545000000001,132.3823" speed="36.11111111111111" width="2.499386934830217"/>
	</edge>
	<edge from="21" function="normal" id="1034" length="84.25915195969228" numLanes="1" priority="1" speed="36.11111111111111" spreadType="center" to="22">
		<lane allow="moped bicycle pedestrian custom1 trailer evehicle rail_urban ship private vip custom2 authority delivery rail_electric taxi tram army hov coach motorcycle passenger rail emergency" index="0" length="84.25915195969228" shape="61.01165,-49.182900000000004 65.26255,-46.5233 79.35415,-36.91945 85.2916,-33.1717 90.5581,-30.259500000000003 98.21445,-26.508 106.94345,-22.685299999999998 123.25095,-16.18615 135.79335,-11.0796" speed="36.11111111111111" width="2.498758061517758"/>
	</edge>
	<edge from="23" function="normal" id="1035" length="84.62159440288734" numLanes="1" priority="1" speed="36.11111111111111" spreadType="center" to="24">
		<lane allow="moped bicycle pedestrian custom1 trailer evehicle rail_urban ship private vip custom2 authority delivery rail_electric taxi tram army hov coach motorcycle passenger rail emergency" index="0" length="84.62159440288734" shape="134.83190000000002,-8.77195 122.26765,-13.88655 105.91225,-20.4069 97.12275,-24.2588 89.3999,-28.0444 84.0638,-30.99395 78.0619,-34.7768 63.94355,-44.39925 59.727149999999995,-47.0389" speed="36.11111111111111" width="2.49991892868549"/>
	</edge>
	<edge from="25" function="normal" id="1036" length="139.3286632524341" numLanes="1" priority="1" speed="36.11111111111111" spreadType="center" to="26">
		<lane allow="moped bicycle pedestrian custom1 trailer evehicle rail_urban ship private vip custom2 authority delivery rail_electric taxi tram army hov coach motorcycle passenger rail emergency" index="0" length="139.3286632524341" shape="-97.22765000000001,-52.6976 -94.72739999999999,-52.40225 -86.1828,-52.0903 -76.1233,-52.12755 -65.06705,-52.5844 -52.025000000000006,-53.5506 -26.995350000000002,-56.0116 -10.962800000000001,-57.439099999999996 1.08755,-58.15675 11.64715,-58.40965 21.20265,-58.2659 29.23705,-57.8116 34.723699999999994,-57.1041 41.64145,-55.791650000000004" speed="36.11111111111111" width="2.4986338067031753"/>
	</edge>
	<edge from="27" function="normal" id="1037" length="139.1547268063875" numLanes="1" priority="1" speed="36.11111111111111" spreadType="center" to="28">
		<lane allow="moped bicycle pedestrian custom1 trailer evehicle rail_urban ship private vip custom2 authority delivery rail_electric taxi tram army hov coach motorcycle passenger rail emergency" index="0" length="139.1547268063875" shape="41.14855,-53.34145 34.276650000000004,-54.644499999999994 28.8734,-55.335300000000004 20.9129,-55.774699999999996 11.4126,-55.9086 0.9053,-55.6468 -11.09805,-54.92185 -27.0982,-53.4891 -52.1248,-51.0326 -65.19605,-50.07305 -76.29060000000001,-49.6235 -86.39365000000001,-49.59385 -95.009,-49.9182 -97.54910000000001,-50.218900000000005" speed="36.11111111111111" width="2.4999277209551476"/>
	</edge>
	<edge from="29" function="normal" id="1038" length="83.97788078926581" numLanes="1" priority="1" speed="36.11111111111111" spreadType="center" to="30">
		<lane allow="moped bicycle pedestrian custom1 trailer evehicle rail_urban ship private vip custom2 authority delivery rail_electric taxi tram army hov coach motorcycle passenger rail emergency" index="0" length="83.97788078926581" shape="116.48895,-118.52865 114.29405,-115.77335 104.9016,-104.50280000000001 95.29155,-93.41725 87.0589,-84.4933 77.83155,-75.11959999999999 59.2425,-57.20245" speed="36.11111111111111" width="2.499130098654331"/>
	</edge>
	<edge from="31" function="normal" id="1039" length="83.66587712807204" numLanes="1" priority="1" speed="36.11111111111111" spreadType="center" to="32">
		<lane allow="moped bicycle pedestrian custom1 trailer evehicle rail_urban ship private vip custom2 authority delivery rail_electric taxi tram army hov coach motorcycle passenger rail emergency" index="0" length="83.66587712807204" shape="57.50635,-59.00015 76.0489,-76.87254999999999 85.23285,-86.20075 93.42269999999999,-95.07749999999999 102.99295000000001,-106.11735 112.35024999999999,-117.3454 114.542,-120.09665" speed="36.11111111111111" width="2.4998046823701983"/>
	</edge>
	<edge from="33" function="normal" id="1040" length="128.1332324342782" numLanes="1" priority="1" speed="36.11111111111111" spreadType="center" to="34">
		<lane allow="moped bicycle pedestrian custom1 trailer evehicle rail_urban ship private vip custom2 authority delivery rail_electric taxi tram army hov coach motorcycle passenger rail emergency" index="0" length="128.1332324342782" shape="-111.2985,80.54875 -112.717,77.3158 -113.62675,74.4308 -114.59440000000001,68.96764999999999 -115.5307,61.459149999999994 -116.08845,53.91295 -116.29740000000001,45.8444 -116.136,37.269999999999996 -115.53625,27.19845 -114.29965,14.14035 -110.73495,-16.9344 -109.36564999999999,-25.40025 -106.9904,-37.2726 -105.14015,-46.1631" speed="36.11111111111111" width="2.4978488445060045"/>
	</edge>
	<edge from="35" function="normal" id="1041" length="81.62301033880414" numLanes="1" priority="1" speed="36.11111111111111" spreadType="center" to="36">
		<lane allow="moped bicycle pedestrian custom1 trailer evehicle rail_urban ship private truck vip custom2 authority delivery rail_electric taxi tram army hov coach motorcycle passenger bus rail emergency" index="0" length="81.62301033880414" shape="7.06475,126.7348 8.8432,167.51999999999998 10.619900000000001,208.28035" speed="36.11111111111111" width="2.4994444762786783"/>
	</edge>
	<edge from="37" function="normal" id="1042" length="81.62180917004403" numLanes="1" priority="1" speed="36.11111111111111" spreadType="center" to="38">
		<lane allow="moped bicycle pedestrian custom1 trailer evehicle rail_urban ship private truck vip custom2 authority delivery rail_electric taxi tram army hov coach motorcycle passenger bus rail emergency" index="0" length="81.62180917004403" shape="8.122250000000001,208.38925 6.34555,167.62885 4.568300000000001,126.84485000000001" speed="36.11111111111111" width="2.4992691831813563"/>
	</edge>
	<edge from="39" function="normal" id="1043" length="54.39032180444075" numLanes="1" priority="1" speed="36.11111111111111" spreadType="center" to="40">
		<lane allow="moped bicycle pedestrian custom1 trailer evehicle rail_urban ship private truck vip custom2 authority delivery rail_electric taxi tram army hov coach motorcycle passenger bus rail emergency" index="0" length="54.39032180444075" shape="44.58435,-43.789950000000005 24.12685,-25.86285 3.6773999999999996,-7.944050000000001" speed="36.11111111111111" width="2.5000033379977715"/>
	</edge>
	<edge from="41" function="normal" id="1044" length="54.41989351980352" numLanes="1" priority="1" speed="36.11111111111111" spreadType="center" to="42">
		<lane allow="moped bicycle pedestrian custom1 trailer evehicle rail_urban ship private truck vip custom2 authority delivery rail_electric taxi tram army hov coach motorcycle passenger bus rail emergency" index="0" length="54.41989351980352" shape="2.0149,-9.81055 22.4792,-27.7431 42.94395,-45.676100000000005" speed="36.11111111111111" width="2.4992842355362463"/>
	</edge>
	<edge from="43" function="normal" id="1045" length="6.524387546977874" numLanes="1" priority="1" speed="36.11111111111111" spreadType="center" to="44">
		<lane allow="moped bicycle pedestrian custom1 trailer evehicle rail_urban ship private truck vip custom2 authority delivery rail_electric taxi tram army hov coach motorcycle passenger bus rail emergency" index="0" length="6.524387546977874" shape="127.96665,-131.0798 125.6823,-128.73930000000001 123.40944999999999,-126.4108" speed="36.11111111111111" width="2.5000186499304204"/>
	</edge>
	<edge from="45" function="normal" id="1046" length="6.539558587969804" numLanes="1" priority="1" speed="36.11111111111111" spreadType="center" to="46">
		<lane allow="moped bicycle pedestrian custom1 trailer evehicle rail_urban ship private truck vip custom2 authority delivery rail_electric taxi tram army hov coach motorcycle passenger bus rail emergency" index="0" length="6.539558587969804" shape="121.60990000000001,-128.14600000000002 123.89314999999999,-130.48545000000001 126.17755,-132.826" speed="36.11111111111111" width="2.499725584939279"/>
	</edge>
	<edge from="47" function="normal" id="1047" length="23.654540940206513" numLanes="1" priority="1" speed="36.11111111111111" spreadType="center" to="48">
		<lane allow="moped bicycle pedestrian custom1 trailer evehicle rail_urban ship private vip custom2 authority delivery rail_electric taxi tram army hov coach motorcycle passenger rail emergency" index="0" length="23.654540940206513" shape="-111.95394999999999,92.0686 -113.7627,93.74295000000001 -116.10065,96.27695 -116.91965,97.504 -117.41810000000001,98.89185 -117.65675,100.34965 -117.87615,103.29705 -117.83885000000001,106.74485 -117.44094999999999,111.1604 -116.931,113.58525" speed="36.11111111111111" width="2.4989107727167856"/>
	</edge>
	<edge from="49" function="normal" id="1048" length="26.29768570490413" numLanes="1" priority="1" speed="36.11111111111111" spreadType="center" to="50">
		<lane allow="moped bicycle pedestrian custom1 trailer evehicle rail_urban ship private vip custom2 authority delivery rail_electric taxi tram army hov coach motorcycle passenger rail emergency" index="0" length="26.29768570490413" shape="-119.36869999999999,114.1341 -119.9176,111.4873 -120.34295,106.6942 -120.36224999999999,102.94475 -120.0913,99.70605 -119.76320000000001,98.01405 -119.1221,96.34030000000001 -118.13425000000001,94.82335 -115.5766,92.0221 -113.6246,90.20949999999999" speed="36.11111111111111" width="2.498742635807054"/>
	</edge>
	<edge from="51" function="normal" id="1049" length="106.53350281056804" numLanes="1" priority="1" speed="36.11111111111111" spreadType="center" to="52">
		<lane allow="moped bicycle pedestrian custom1 trailer evehicle rail_urban ship private vip custom2 authority delivery rail_electric taxi tram army hov coach motorcycle passenger rail emergency" index="0" length="106.53350281056804" shape="-1.9708,120.86455000000001 -72.24674999999999,123.87735 -96.85345,124.67625000000001 -108.4251,124.8738" speed="36.11111111111111" width="2.4991592606314557"/>
	</edge>
	<edge from="53" function="normal" id="1050" length="106.48754325968048" numLanes="1" priority="1" speed="36.11111111111111" spreadType="center" to="54">
		<lane allow="moped bicycle pedestrian custom1 trailer evehicle rail_urban ship private vip custom2 authority delivery rail_electric taxi tram army hov coach motorcycle passenger rail emergency" index="0" length="106.48754325968048" shape="-108.45824999999999,122.37545 -96.9,122.17660000000001 -72.3187,121.3783 -2.0499,118.3663" speed="36.11111111111111" width="2.4995549563872417"/>
	</edge>
	<edge from="26" function="normal" id="1051" length="16.867143546580746" numLanes="1" priority="1" speed="36.11111111111111" spreadType="center" to="31">
		<lane allow="moped bicycle pedestrian custom1 trailer evehicle rail_urban ship private vip custom2 authority delivery rail_electric taxi tram army hov coach motorcycle passenger rail emergency" index="0" length="16.867143546580746" shape="41.64145,-55.791650000000004 44.770849999999996,-55.302 46.87895,-55.18044999999999 48.98865,-55.2627 51.073899999999995,-55.59075 53.0945,-56.19985 54.99795,-57.1101 56.73095,-58.3137 57.50635,-59.00015" speed="36.11111111111111" width="2.4986338067031753"/>
	</edge>
	<edge from="26" function="normal" id="1052" length="20.54963050118639" numLanes="1" priority="1" speed="36.11111111111111" spreadType="center" to="21">
		<lane allow="moped bicycle pedestrian custom1 trailer evehicle rail_urban ship private vip custom2 authority delivery rail_electric taxi tram army hov coach motorcycle passenger rail emergency" index="0" length="20.54963050118639" shape="41.64145,-55.791650000000004 47.95625,-54.2949 53.129149999999996,-52.71965 57.1605,-51.1515 60.072599999999994,-49.722 61.01165,-49.182900000000004" speed="36.11111111111111" width="2.4986338067031753"/>
	</edge>
	<edge from="10" function="normal" id="1053" length="14.728962329530138" numLanes="1" priority="1" speed="36.11111111111111" spreadType="center" to="41">
		<lane allow="moped bicycle pedestrian custom1 trailer evehicle rail_urban ship private vip custom2 authority delivery rail_electric taxi tram army hov coach motorcycle passenger rail emergency" index="0" length="14.728962329530138" shape="2.5128500000000003,2.3397 1.23655,1.2884 0.10465000000000002,0.10520000000000002 -0.8109,-1.24955 -1.3727500000000001,-2.78095 -1.4399,-4.40815 -1.00525,-5.9803 -0.20029999999999998,-7.403599999999999 0.83575,-8.67135 2.0149,-9.81055" speed="36.11111111111111" width="2.4992842355362463"/>
	</edge>
	<edge from="42" function="normal" id="1054" length="19.857100802840247" numLanes="1" priority="1" speed="36.11111111111111" spreadType="center" to="21">
		<lane allow="moped bicycle pedestrian custom1 trailer evehicle rail_urban ship private vip custom2 authority delivery rail_electric taxi tram army hov coach motorcycle passenger rail emergency" index="0" length="19.857100802840247" shape="42.94395,-45.676100000000005 44.87185,-47.2411 46.9277,-48.63175 49.12535,-49.7839 50.277699999999996,-50.2449 51.463300000000004,-50.6115 52.67655,-50.87215 53.90945,-51.01195 55.15015,-51.024249999999995 56.38485,-50.90205 57.59945,-50.648300000000006 58.781000000000006,-50.269 59.9199,-49.77585 61.01165,-49.182900000000004" speed="36.11111111111111" width="2.498758061517758"/>
	</edge>
	<edge from="38" function="normal" id="1055" length="10.137798017640046" numLanes="1" priority="1" speed="36.11111111111111" spreadType="center" to="51">
		<lane allow="moped bicycle pedestrian custom1 trailer evehicle rail_urban ship private vip custom2 authority delivery rail_electric taxi tram army hov coach motorcycle passenger rail emergency" index="0" length="10.137798017640046" shape="4.568300000000001,126.84485000000001 4.45895,125.7436 4.2185,124.63995 3.8035,123.5904 3.18485,122.64744999999999 2.3542,121.88499999999999 1.3622,121.34855 0.28064999999999996,121.0257 -0.8392,120.87819999999999 -1.9708,120.86455000000001" speed="36.11111111111111" width="2.4991592606314557"/>
	</edge>
	<edge from="16" function="normal" id="1056" length="16.06826267338067" numLanes="1" priority="1" speed="36.11111111111111" spreadType="center" to="17">
		<lane allow="moped bicycle pedestrian custom1 trailer evehicle rail_urban ship private vip custom2 authority delivery rail_electric taxi tram army hov coach motorcycle passenger rail emergency" index="0" length="16.06826267338067" shape="-126.33185,125.0422 -123.64445,125.12049999999999 -120.9894,125.4582 -119.6851,125.759 -118.41255,126.173 -117.19375,126.72465 -116.06145000000001,127.436 -115.06139999999999,128.32315 -114.24465000000001,129.38094999999998 -113.6437,130.57505 -113.26215,131.86110000000002" speed="36.11111111111111" width="2.497237579806936"/>
	</edge>
	<edge from="52" function="normal" id="1057" length="10.226269305212082" numLanes="1" priority="1" speed="36.11111111111111" spreadType="center" to="17">
		<lane allow="moped bicycle pedestrian custom1 trailer evehicle rail_urban ship private vip custom2 authority delivery rail_electric taxi tram army hov coach motorcycle passenger rail emergency" index="0" length="10.226269305212082" shape="-108.4251,124.8738 -109.54429999999999,124.95429999999999 -110.65715,125.19385 -111.6954,125.6566 -112.55985,126.3913 -113.14959999999999,127.3614 -113.4456,128.4597 -113.5244,129.5956 -113.44765000000001,130.73250000000002 -113.26215,131.86110000000002" speed="36.11111111111111" width="2.497237579806936"/>
	</edge>
	<edge from="16" function="normal" id="1058" length="17.87087378535908" numLanes="1" priority="1" speed="36.11111111111111" spreadType="center" to="53">
		<lane allow="moped bicycle pedestrian custom1 trailer evehicle rail_urban ship private truck vip custom2 authority delivery rail_electric taxi tram army hov coach motorcycle passenger bus rail emergency" index="0" length="17.87087378535908" shape="-126.32835,122.54175000000001 -117.3874,122.45835 -108.45824999999999,122.37545" speed="36.11111111111111" width="2.4995549563872417"/>
	</edge>
	<edge from="20" function="normal" id="1059" length="14.742348701509727" numLanes="1" priority="1" speed="36.11111111111111" spreadType="center" to="53">
		<lane allow="moped bicycle pedestrian custom1 trailer evehicle rail_urban ship private vip custom2 authority delivery rail_electric taxi tram army hov coach motorcycle passenger rail emergency" index="0" length="14.742348701509727" shape="-115.70545000000001,132.3823 -115.953,130.86865 -116.046,129.32265 -115.91040000000001,127.71594999999999 -115.4246,126.09295 -114.4679,124.6098 -113.11080000000001,123.49805 -111.56115,122.81875 -109.9868,122.4839 -108.45824999999999,122.37545" speed="36.11111111111111" width="2.499386934830217"/>
	</edge>
	<edge from="48" function="normal" id="1060" length="13.32240774248124" numLanes="1" priority="1" speed="36.11111111111111" spreadType="center" to="53">
		<lane allow="moped bicycle pedestrian custom1 trailer evehicle rail_urban ship private vip custom2 authority delivery rail_electric taxi tram army hov coach motorcycle passenger rail emergency" index="0" length="13.32240774248124" shape="-116.931,113.58525 -116.32679999999999,115.7147 -115.9345,116.75775 -115.46889999999999,117.77015 -114.9191,118.7392 -114.2724,119.64635 -113.51335,120.4615 -112.646,121.15944999999999 -111.67869999999999,121.70985 -110.63385,122.09335 -109.5418,122.3103 -108.45824999999999,122.37545" speed="36.11111111111111" width="2.4989107727167856"/>
	</edge>
	<edge from="20" function="normal" id="1061" length="18.61286901544873" numLanes="1" priority="1" speed="36.11111111111111" spreadType="center" to="49">
		<lane allow="moped bicycle pedestrian custom1 trailer evehicle rail_urban ship private vip custom2 authority delivery rail_electric taxi tram army hov coach motorcycle passenger rail emergency" index="0" length="18.61286901544873" shape="-115.70545000000001,132.3823 -118.89065,116.269 -119.36869999999999,114.1341" speed="36.11111111111111" width="2.4987744996297674"/>
	</edge>
	<edge from="4" function="normal" id="1062" length="14.930768854724286" numLanes="1" priority="1" speed="36.11111111111111" spreadType="center" to="41">
		<lane allow="moped bicycle pedestrian custom1 trailer evehicle rail_urban ship private truck vip custom2 authority delivery rail_electric taxi tram army hov coach motorcycle passenger bus rail emergency" index="0" length="14.930768854724286" shape="-9.2215,0.021600000000000008 -3.60365,-4.8941 2.0149,-9.81055" speed="36.11111111111111" width="2.499000136054418"/>
	</edge>
	<edge from="50" function="normal" id="1063" length="13.402945095822858" numLanes="1" priority="1" speed="36.11111111111111" spreadType="center" to="3">
		<lane allow="moped bicycle pedestrian custom1 trailer evehicle rail_urban ship private truck vip custom2 authority delivery rail_electric taxi tram army hov coach motorcycle passenger bus rail emergency" index="0" length="13.402945095822858" shape="-113.6246,90.20949999999999 -108.5498,85.82535 -103.48165,81.44825" speed="36.11111111111111" width="2.498742635807054"/>
	</edge>
	<edge from="30" function="normal" id="1064" length="10.073795976488219" numLanes="1" priority="1" speed="36.11111111111111" spreadType="center" to="21">
		<lane allow="moped bicycle pedestrian custom1 trailer evehicle rail_urban ship private vip custom2 authority delivery rail_electric taxi tram army hov coach motorcycle passenger rail emergency" index="0" length="10.073795976488219" shape="59.2425,-57.20245 58.495999999999995,-56.3851 57.871700000000004,-55.452600000000004 57.47805,-54.4045 57.43785,-53.2894 57.77645,-52.225049999999996 58.3989,-51.292950000000005 59.1863,-50.49255 60.0696,-49.79815000000001 61.01165,-49.182900000000004" speed="36.11111111111111" width="2.498758061517758"/>
	</edge>
	<edge from="24" function="normal" id="1065" length="14.776523040798322" numLanes="1" priority="1" speed="36.11111111111111" spreadType="center" to="31">
		<lane allow="moped bicycle pedestrian custom1 trailer evehicle rail_urban ship private vip custom2 authority delivery rail_electric taxi tram army hov coach motorcycle passenger rail emergency" index="0" length="14.776523040798322" shape="59.727149999999995,-47.0389 58.466,-47.8664 57.26535,-48.82725 56.16355,-49.99135 55.2749,-51.4309 54.811449999999994,-53.1395 54.93135,-54.9144 55.554249999999996,-56.51645 56.463449999999995,-57.861450000000005 57.50635,-59.00015" speed="36.11111111111111" width="2.4998839533066284"/>
	</edge>
	<edge from="52" function="normal" id="1066" length="16.74562479873052" numLanes="1" priority="1" speed="36.11111111111111" spreadType="center" to="49">
		<lane allow="moped bicycle pedestrian custom1 trailer evehicle rail_urban ship private vip custom2 authority delivery rail_electric taxi tram army hov coach motorcycle passenger rail emergency" index="0" length="16.74562479873052" shape="-108.4251,124.8738 -109.81825,124.79695000000001 -111.22475,124.53435 -112.5945,124.06135 -113.87795,123.3739 -115.031,122.4978 -116.03120000000001,121.47565 -116.874,120.34785 -117.5754,119.15944999999999 -118.15785,117.93175 -118.64564999999999,116.66245 -119.36869999999999,114.1341" speed="36.11111111111111" width="2.4987744996297674"/>
	</edge>
	<edge from="54" function="normal" id="1067" length="14.083349453900802" numLanes="1" priority="1" speed="36.11111111111111" spreadType="center" to="35">
		<lane allow="moped bicycle pedestrian custom1 trailer evehicle rail_urban ship private vip custom2 authority delivery rail_electric taxi tram army hov coach motorcycle passenger rail emergency" index="0" length="14.083349453900802" shape="-2.0499,118.3663 -0.5767,118.38645 0.93725,118.58924999999999 2.45015,119.04635 3.88305,119.82815 5.10435,120.94900000000001 6.00545,122.31115 6.5899,123.77875 6.919599999999999,125.2721 7.06475,126.7348" speed="36.11111111111111" width="2.4994444762786783"/>
	</edge>
	<edge from="50" function="normal" id="1068" length="10.791473442907334" numLanes="1" priority="1" speed="36.11111111111111" spreadType="center" to="33">
		<lane allow="moped bicycle pedestrian custom1 trailer evehicle rail_urban ship private vip custom2 authority delivery rail_electric taxi tram army hov coach motorcycle passenger rail emergency" index="0" length="10.791473442907334" shape="-113.6246,90.20949999999999 -112.4111,88.98965 -111.41215,87.6118 -110.71695,86.0602 -110.4237,84.38645 -110.56165,82.69215 -111.06635,81.06715 -111.2985,80.54875" speed="36.11111111111111" width="2.4978488445060045"/>
	</edge>
	<edge from="16" function="normal" id="1069" length="10.994668697376413" numLanes="1" priority="1" speed="36.11111111111111" spreadType="center" to="49">