<!-- generated on 2020-12-18 17:02:13.210435 by ipykernel_launcher.py v1_2_0+5214-53edc58fcd
-->
<nodes>
	<node id="1" type="from" x="-7.6004000000000005" y="1.9239000000000002"/>
	<node id="2" type="to" x="-101.863" y="83.35255000000001"/>
	<node id="3" type="from" x="-103.48165" y="81.44825"/>
	<node id="4" type="to" x="-9.2215" y="0.021600000000000008"/>
	<node id="5" type="from" x="93.0213" y="117.12440000000001"/>
	<node id="6" type="to" x="12.811900000000001" y="120.35165"/>
	<node id="7" type="from" x="12.714400000000001" y="117.85405"/>
	<node id="8" type="to" x="92.91640000000001" y="114.6266"/>
	<node id="9" type="from" x="7.495" y="47.2343"/>
	<node id="10" type="to" x="2.5128500000000003" y="2.3397"/>
	<node id="11" type="from" x="4.02785" y="0.35235"/>
	<node id="12" type="to" x="9.99455" y="47.2814"/>
	<node id="13" type="from" x="-126.30645000000001" y="127.54165"/>
	<node id="14" type="to" x="-129.8395" y="127.57650000000001"/>
	<node id="15" type="from" x="-129.88830000000002" y="122.57675"/>
	<node id="16" type="to" x="-126.34666666666665" y="122.54221666666666"/>
	<node id="17" type="from" x="-113.26215" y="131.86110000000002"/>
	<node id="18" type="to" x="-102.54575" y="216.58885"/>
	<node id="19" type="from" x="-105.0281" y="216.8854"/>
	<node id="20" type="to" x="-115.70545000000001" y="132.3823"/>
	<node id="21" type="from" x="61.01165" y="-49.182900000000004"/>
	<node id="22" type="to" x="135.79335" y="-11.0796"/>
	<node id="23" type="from" x="134.83190000000002" y="-8.77195"/>
	<node id="24" type="to" x="59.727149999999995" y="-47.0389"/>
	<node id="25" type="from" x="-97.22765000000001" y="-52.6976"/>
	<node id="26" type="to" x="41.64145" y="-55.791650000000004"/>
	<node id="27" type="from" x="41.14855" y="-53.34145"/>
	<node id="28" type="to" x="-97.54910000000001" y="-50.218900000000005"/>
	<node id="29" type="from" x="116.48895" y="-118.52865"/>
	<node id="30" type="to" x="59.2425" y="-57.20245"/>
	<node id="31" type="from" x="57.50635" y="-59.00015"/>
	<node id="32" type="to" x="114.542" y="-120.09665"/>
	<node id="33" type="from" x="-111.2985" y="80.54875"/>
	<node id="34" type="to" x="-105.14015" y="-46.1631"/>
	<node id="35" type="from" x="7.06475" y="126.7348"/>
	<node id="36" type="to" x="10.619900000000001" y="208.28035"/>
	<node id="37" type="from" x="8.122250000000001" y="208.38925"/>
	<node id="38" type="to" x="4.568300000000001" y="126.84485000000001"/>
	<node id="39" type="from" x="44.58435" y="-43.789950000000005"/>
	<node id="40" type="to" x="3.6773999999999996" y="-7.944050000000001"/>
	<node id="41" type="from" x="2.0149" y="-9.81055"/>
	<node id="42" type="to" x="42.94395" y="-45.676100000000005"/>
	<node id="43" type="from" x="127.96665" y="-131.0798"/>
	<node id="44" type="to" x="123.40944999999999" y="-126.4108"/>
	<node id="45" type="from" x="121.60990000000001" y="-128.14600000000002"/>
	<node id="46" type="to" x="126.17755" y="-132.826"/>
	<node id="47" type="from" x="-111.95394999999999" y="92.0686"/>
	<node id="48" type="to" x="-116.931" y="113.58525"/>
	<node id="49" type="from" x="-119.36869999999999" y="114.1341"/>
	<node id="50" type="to" x="-113.6246" y="90.20949999999999"/>
	<node id="51" type="from" x="-1.9708" y="120.86455000000001"/>
	<node id="52" type="to" x="-108.4251" y="124.8738"/>
	<node id="53" type="from" x="-108.45824999999999" y="122.37545"/>
	<node id="54" type="to" x="-2.0499" y="118.3663"/>
</nodes>
