<!-- generated on 2020-12-18 16:48:03.404037 by ipykernel_launcher.py v1_2_0+5214-53edc58fcd
-->
<connections>
	<connection contPos="-4.0" from="833" fromLane="0" keepClear="true" to="1030" toLane="0"/>
	<connection contPos="-4.0" from="833" fromLane="0" keepClear="true" to="1038" toLane="0"/>
	<connection contPos="-4.0" from="833" fromLane="0" keepClear="true" to="1052" toLane="0"/>
	<connection contPos="-4.0" from="834" fromLane="0" keepClear="true" to="1047" toLane="0"/>
	<connection contPos="-4.0" from="834" fromLane="0" keepClear="true" to="1058" toLane="0"/>
	<connection contPos="-4.0" from="835" fromLane="0" keepClear="true" to="1019" toLane="0"/>
	<connection contPos="-4.0" from="835" fromLane="0" keepClear="true" to="1050" toLane="0"/>
	<connection contPos="-4.0" from="835" fromLane="1" keepClear="true" to="1019" toLane="1"/>
	<connection contPos="-4.0" from="838" fromLane="1" keepClear="true" to="1020" toLane="1"/>
	<connection contPos="-4.0" from="838" fromLane="0" keepClear="true" to="1054" toLane="0"/>
	<connection contPos="-4.0" from="838" fromLane="0" keepClear="true" to="1020" toLane="0"/>
	<connection contPos="-4.0" from="840" fromLane="1" keepClear="true" to="1055" toLane="0"/>
	<connection contPos="-4.0" from="840" fromLane="1" keepClear="true" to="1033" toLane="1"/>
	<connection contPos="-4.0" from="840" fromLane="0" keepClear="true" to="1033" toLane="0"/>
	<connection contPos="-4.0" from="840" fromLane="0" keepClear="true" to="1018" toLane="0"/>
	<connection contPos="-4.0" from="841" fromLane="0" keepClear="true" to="1053" toLane="0"/>
	<connection contPos="-4.0" from="841" fromLane="0" keepClear="true" to="1026" toLane="0"/>
	<connection contPos="-4.0" from="841" fromLane="1" keepClear="true" to="1053" toLane="1"/>
	<connection contPos="-4.0" from="841" fromLane="1" keepClear="true" to="1040" toLane="0"/>
	<connection contPos="-4.0" from="845" fromLane="0" keepClear="true" to="1032" toLane="0"/>
	<connection contPos="-4.0" from="845" fromLane="0" keepClear="true" to="1056" toLane="0"/>
	<connection contPos="-4.0" from="846" fromLane="0" keepClear="true" to="1021" toLane="0"/>
	<connection contPos="-4.0" from="846" fromLane="0" keepClear="true" to="1015" toLane="0"/>
	<connection contPos="-4.0" from="848" fromLane="0" keepClear="true" to="1049" toLane="0"/>
	<connection contPos="-4.0" from="848" fromLane="0" keepClear="true" to="1057" toLane="0"/>
	<connection contPos="-4.0" from="849" fromLane="0" keepClear="true" to="1044" toLane="0"/>
	<connection contPos="-4.0" from="853" fromLane="1" keepClear="true" to="1041" toLane="0"/>
	<connection contPos="-4.0" from="853" fromLane="1" keepClear="true" to="1037" toLane="1"/>
	<connection contPos="-4.0" from="853" fromLane="1" keepClear="true" to="1025" toLane="0"/>
	<connection contPos="-4.0" from="853" fromLane="0" keepClear="true" to="1037" toLane="0"/>
	<connection contPos="-4.0" from="854" fromLane="0" keepClear="true" to="1042" toLane="0"/>
	<connection contPos="-4.0" from="854" fromLane="1" keepClear="true" to="1017" toLane="0"/>
	<connection contPos="-4.0" from="854" fromLane="1" keepClear="true" to="1042" toLane="1"/>
	<connection contPos="-4.0" from="857" fromLane="1" keepClear="true" to="1048" toLane="1"/>
	<connection contPos="-4.0" from="857" fromLane="1" keepClear="true" to="1062" toLane="0"/>
	<connection contPos="-4.0" from="857" fromLane="0" keepClear="true" to="1048" toLane="0"/>
	<connection contPos="-4.0" from="859" fromLane="1" keepClear="true" to="1016" toLane="1"/>
	<connection contPos="-4.0" from="859" fromLane="1" keepClear="true" to="1022" toLane="0"/>
	<connection contPos="-4.0" from="859" fromLane="0" keepClear="true" to="1035" toLane="0"/>
	<connection contPos="-4.0" from="859" fromLane="0" keepClear="true" to="1016" toLane="0"/>
	<connection contPos="-4.0" from="863" fromLane="1" keepClear="true" to="1063" toLane="1"/>
	<connection contPos="-4.0" from="863" fromLane="0" keepClear="true" to="1063" toLane="0"/>
	<connection contPos="-4.0" from="863" fromLane="0" keepClear="true" to="1060" toLane="0"/>
	<connection contPos="-4.0" from="864" fromLane="0" keepClear="true" to="1034" toLane="0"/>
	<connection contPos="-4.0" from="865" fromLane="0" keepClear="true" to="1061" toLane="0"/>
	<connection contPos="-4.0" from="865" fromLane="0" keepClear="true" to="1028" toLane="0"/>
	<connection contPos="-4.0" from="866" fromLane="0" keepClear="true" to="1059" toLane="0"/>
	<connection contPos="-4.0" from="866" fromLane="1" keepClear="true" to="1036" toLane="0"/>
	<connection contPos="-4.0" from="866" fromLane="1" keepClear="true" to="1059" toLane="1"/>
	<connection contPos="-4.0" from="869" fromLane="1" keepClear="true" to="996" toLane="1"/>
	<connection contPos="-4.0" from="869" fromLane="0" keepClear="true" to="997" toLane="0"/>
	<connection contPos="-4.0" from="869" fromLane="0" keepClear="true" to="996" toLane="0"/>
	<connection contPos="-4.0" from="873" fromLane="1" keepClear="true" to="966" toLane="0"/>
	<connection contPos="-4.0" from="873" fromLane="1" keepClear="true" to="959" toLane="1"/>
	<connection contPos="-4.0" from="873" fromLane="0" keepClear="true" to="959" toLane="0"/>
	<connection contPos="-4.0" from="875" fromLane="1" keepClear="true" to="934" toLane="0"/>
	<connection contPos="-4.0" from="875" fromLane="1" keepClear="true" to="938" toLane="1"/>
	<connection contPos="-4.0" from="875" fromLane="0" keepClear="true" to="980" toLane="0"/>
	<connection contPos="-4.0" from="875" fromLane="0" keepClear="true" to="938" toLane="0"/>
	<connection contPos="-4.0" from="877" fromLane="0" keepClear="true" to="932" toLane="0"/>
	<connection contPos="-4.0" from="877" fromLane="0" keepClear="true" to="962" toLane="0"/>
	<connection contPos="-4.0" from="879" fromLane="1" keepClear="true" to="929" toLane="1"/>
	<connection contPos="-4.0" from="879" fromLane="1" keepClear="true" to="961" toLane="0"/>
	<connection contPos="-4.0" from="879" fromLane="0" keepClear="true" to="993" toLane="0"/>
	<connection contPos="-4.0" from="879" fromLane="0" keepClear="true" to="929" toLane="0"/>
	<connection contPos="-4.0" from="880" fromLane="0" keepClear="true" to="964" toLane="0"/>
	<connection contPos="-4.0" from="880" fromLane="0" keepClear="true" to="988" toLane="0"/>
	<connection contPos="-4.0" from="881" fromLane="0" keepClear="true" to="998" toLane="0"/>
	<connection contPos="-4.0" from="881" fromLane="0" keepClear="true" to="943" toLane="0"/>
	<connection contPos="-4.0" from="883" fromLane="1" keepClear="true" to="936" toLane="0"/>
	<connection contPos="-4.0" from="883" fromLane="1" keepClear="true" to="940" toLane="1"/>
	<connection contPos="-4.0" from="883" fromLane="0" keepClear="true" to="940" toLane="0"/>
	<connection contPos="-4.0" from="883" fromLane="0" keepClear="true" to="981" toLane="0"/>
	<connection contPos="-4.0" from="884" fromLane="0" keepClear="true" to="999" toLane="0"/>
	<connection contPos="-4.0" from="884" fromLane="0" keepClear="true" to="986" toLane="0"/>
	<connection contPos="-4.0" from="885" fromLane="0" keepClear="true" to="983" toLane="0"/>
	<connection contPos="-4.0" from="886" fromLane="0" keepClear="true" to="944" toLane="0"/>
	<connection contPos="-4.0" from="886" fromLane="1" keepClear="true" to="944" toLane="1"/>
	<connection contPos="-4.0" from="886" fromLane="1" keepClear="true" to="963" toLane="0"/>
	<connection contPos="-4.0" from="889" fromLane="1" keepClear="true" to="1012" toLane="1"/>
	<connection contPos="-4.0" from="889" fromLane="0" keepClear="true" to="1012" toLane="0"/>
	<connection contPos="-4.0" from="891" fromLane="1" keepClear="true" to="987" toLane="1"/>
	<connection contPos="-4.0" from="891" fromLane="1" keepClear="true" to="945" toLane="0"/>
	<connection contPos="-4.0" from="891" fromLane="0" keepClear="true" to="987" toLane="0"/>
	<connection contPos="-4.0" from="894" fromLane="0" keepClear="true" to="953" toLane="0"/>
	<connection contPos="-4.0" from="894" fromLane="0" keepClear="true" to="947" toLane="0"/>
	<connection contPos="-4.0" from="894" fromLane="1" keepClear="true" to="947" toLane="1"/>
	<connection contPos="-4.0" from="897" fromLane="1" keepClear="true" to="973" toLane="0"/>
	<connection contPos="-4.0" from="897" fromLane="0" keepClear="true" to="1007" toLane="0"/>
	<connection contPos="-4.0" from="899" fromLane="1" keepClear="true" to="1011" toLane="0"/>
	<connection contPos="-4.0" from="899" fromLane="1" keepClear="true" to="951" toLane="1"/>
	<connection contPos="-4.0" from="899" fromLane="0" keepClear="true" to="951" toLane="0"/>
	<connection contPos="-4.0" from="900" fromLane="0" keepClear="true" to="941" toLane="0"/>
	<connection contPos="-4.0" from="900" fromLane="0" keepClear="true" to="979" toLane="0"/>
	<connection contPos="-4.0" from="901" fromLane="0" keepClear="true" to="1014" toLane="0"/>
	<connection contPos="-4.0" from="901" fromLane="0" keepClear="true" to="928" toLane="0"/>
	<connection contPos="-4.0" from="901" fromLane="0" keepClear="true" to="952" toLane="0"/>
	<connection contPos="-4.0" from="902" fromLane="0" keepClear="true" to="969" toLane="0"/>
	<connection contPos="-4.0" from="902" fromLane="0" keepClear="true" to="967" toLane="0"/>
	<connection contPos="-4.0" from="904" fromLane="0" keepClear="true" to="1005" toLane="0"/>
	<connection contPos="-4.0" from="904" fromLane="1" keepClear="true" to="1005" toLane="1"/>
	<connection contPos="-4.0" from="904" fromLane="1" keepClear="true" to="946" toLane="0"/>
	<connection contPos="-4.0" from="907" fromLane="1" keepClear="true" to="994" toLane="1"/>
	<connection contPos="-4.0" from="907" fromLane="1" keepClear="true" to="975" toLane="0"/>
	<connection contPos="-4.0" from="907" fromLane="0" keepClear="true" to="994" toLane="0"/>
	<connection contPos="-4.0" from="911" fromLane="1" keepClear="true" to="1003" toLane="1"/>
	<connection contPos="-4.0" from="911" fromLane="0" keepClear="true" to="992" toLane="0"/>
	<connection contPos="-4.0" from="911" fromLane="0" keepClear="true" to="1003" toLane="0"/>
	<connection contPos="-4.0" from="912" fromLane="0" keepClear="true" to="1013" toLane="0"/>
	<connection contPos="-4.0" from="913" fromLane="0" keepClear="true" to="960" toLane="0"/>
	<connection contPos="-4.0" from="913" fromLane="0" keepClear="true" to="991" toLane="0"/>
	<connection contPos="-4.0" from="914" fromLane="0" keepClear="true" to="1001" toLane="0"/>
	<connection contPos="-4.0" from="915" fromLane="0" keepClear="true" to="956" toLane="0"/>
	<connection contPos="-4.0" from="915" fromLane="0" keepClear="true" to="995" toLane="0"/>
	<connection contPos="-4.0" from="916" fromLane="0" keepClear="true" to="1010" toLane="0"/>
	<connection contPos="-4.0" from="916" fromLane="0" keepClear="true" to="958" toLane="0"/>
	<connection contPos="-4.0" from="916" fromLane="1" keepClear="true" to="1010" toLane="1"/>
	<connection contPos="-4.0" from="919" fromLane="1" keepClear="true" to="978" toLane="1"/>
	<connection contPos="-4.0" from="919" fromLane="1" keepClear="true" to="949" toLane="0"/>
	<connection contPos="-4.0" from="919" fromLane="0" keepClear="true" to="978" toLane="0"/>
	<connection contPos="-4.0" from="919" fromLane="0" keepClear="true" to="990" toLane="0"/>
	<connection contPos="-4.0" from="921" fromLane="1" keepClear="true" to="965" toLane="1"/>
	<connection contPos="-4.0" from="921" fromLane="1" keepClear="true" to="982" toLane="0"/>
	<connection contPos="-4.0" from="921" fromLane="0" keepClear="true" to="954" toLane="0"/>
	<connection contPos="-4.0" from="921" fromLane="0" keepClear="true" to="965" toLane="0"/>
	<connection contPos="-4.0" from="923" fromLane="1" keepClear="true" to="984" toLane="0"/>
	<connection contPos="-4.0" from="923" fromLane="1" keepClear="true" to="948" toLane="1"/>
	<connection contPos="-4.0" from="923" fromLane="0" keepClear="true" to="1009" toLane="0"/>
	<connection contPos="-4.0" from="923" fromLane="0" keepClear="true" to="948" toLane="0"/>
	<connection contPos="-4.0" from="925" fromLane="1" keepClear="true" to="1000" toLane="0"/>
	<connection contPos="-4.0" from="925" fromLane="1" keepClear="true" to="976" toLane="1"/>
	<connection contPos="-4.0" from="925" fromLane="0" keepClear="true" to="976" toLane="0"/>
	<connection contPos="-4.0" from="927" fromLane="1" keepClear="true" to="942" toLane="1"/>
	<connection contPos="-4.0" from="927" fromLane="1" keepClear="true" to="1002" toLane="0"/>
	<connection contPos="-4.0" from="927" fromLane="0" keepClear="true" to="942" toLane="0"/>
	<connection contPos="-4.0" from="927" fromLane="0" keepClear="true" to="974" toLane="0"/>
	<connection contPos="-4.0" from="928" fromLane="0" keepClear="true" to="834" toLane="0"/>
	<connection contPos="-4.0" from="929" fromLane="0" keepClear="true" to="927" toLane="0"/>
	<connection contPos="-4.0" from="976" fromLane="1" keepClear="true" to="875" toLane="1"/>
	<connection contPos="-4.0" from="987" fromLane="1" keepClear="true" to="853" toLane="1"/>
	<connection contPos="-4.0" from="932" fromLane="0" keepClear="true" to="893" toLane="0"/>
	<connection contPos="-4.0" from="944" fromLane="1" keepClear="true" to="866" toLane="1"/>
	<connection contPos="-4.0" from="934" fromLane="0" keepClear="true" to="889" toLane="1"/>
	<connection contPos="-4.0" from="1012" fromLane="1" keepClear="true" to="923" toLane="1"/>
	<connection contPos="-4.0" from="936" fromLane="0" keepClear="true" to="904" toLane="1"/>
	<connection contPos="-4.0" from="951" fromLane="1" keepClear="true" to="925" toLane="1"/>
	<connection contPos="-4.0" from="938" fromLane="0" keepClear="true" to="921" toLane="0"/>
	<connection contPos="-4.0" from="978" fromLane="1" keepClear="true" to="844" toLane="1"/>
	<connection contPos="-4.0" from="940" fromLane="0" keepClear="true" to="851" toLane="0"/>
	<connection contPos="-4.0" from="941" fromLane="0" keepClear="true" to="881" toLane="0"/>
	<connection contPos="-4.0" from="942" fromLane="0" keepClear="true" to="899" toLane="0"/>
	<connection contPos="-4.0" from="943" fromLane="0" keepClear="true" to="885" toLane="0"/>
	<connection contPos="-4.0" from="944" fromLane="0" keepClear="true" to="866" toLane="0"/>
	<connection contPos="-4.0" from="945" fromLane="0" keepClear="true" to="915" toLane="0"/>
	<connection contPos="-4.0" from="946" fromLane="0" keepClear="true" to="927" toLane="1"/>
	<connection contPos="-4.0" from="947" fromLane="0" keepClear="true" to="904" toLane="0"/>
	<connection contPos="-4.0" from="948" fromLane="0" keepClear="true" to="840" toLane="0"/>
	<connection contPos="-4.0" from="949" fromLane="0" keepClear="true" to="834" toLane="0"/>
	<connection contPos="-4.0" from="965" fromLane="1" keepClear="true" to="893" toLane="1"/>
	<connection contPos="-4.0" from="951" fromLane="0" keepClear="true" to="925" toLane="0"/>
	<connection contPos="-4.0" from="952" fromLane="0" keepClear="true" to="916" toLane="1"/>
	<connection contPos="-4.0" from="953" fromLane="0" keepClear="true" to="851" toLane="0"/>
	<connection contPos="-4.0" from="954" fromLane="0" keepClear="true" to="876" toLane="0"/>
	<connection contPos="-4.0" from="996" fromLane="1" keepClear="true" to="889" toLane="1"/>
	<connection contPos="-4.0" from="956" fromLane="0" keepClear="true" to="893" toLane="1"/>
	<connection contPos="-4.0" from="959" fromLane="1" keepClear="true" to="838" toLane="1"/>
	<connection contPos="-4.0" from="958" fromLane="0" keepClear="true" to="883" toLane="0"/>
	<connection contPos="-4.0" from="959" fromLane="0" keepClear="true" to="838" toLane="0"/>
	<connection contPos="-4.0" from="960" fromLane="0" keepClear="true" to="849" toLane="0"/>
	<connection contPos="-4.0" from="961" fromLane="0" keepClear="true" to="907" toLane="1"/>
	<connection contPos="-4.0" from="962" fromLane="0" keepClear="true" to="914" toLane="0"/>
	<connection contPos="-4.0" from="963" fromLane="0" keepClear="true" to="921" toLane="1"/>
	<connection contPos="-4.0" from="964" fromLane="0" keepClear="true" to="864" toLane="0"/>
	<connection contPos="-4.0" from="965" fromLane="0" keepClear="true" to="893" toLane="0"/>
	<connection contPos="-4.0" from="966" fromLane="0" keepClear="true" to="903" toLane="0"/>
	<connection contPos="-4.0" from="967" fromLane="0" keepClear="true" to="870" toLane="0"/>
	<connection contPos="-4.0" from="948" fromLane="1" keepClear="true" to="840" toLane="1"/>
	<connection contPos="-4.0" from="969" fromLane="0" keepClear="true" to="838" toLane="1"/>
	<connection contPos="-4.0" from="940" fromLane="1" keepClear="true" to="851" toLane="1"/>
	<connection contPos="-4.0" from="1003" fromLane="1" keepClear="true" to="907" toLane="1"/>
	<connection contPos="-4.0" from="938" fromLane="1" keepClear="true" to="921" toLane="1"/>
	<connection contPos="-4.0" from="973" fromLane="0" keepClear="true" to="833" toLane="0"/>
	<connection contPos="-4.0" from="974" fromLane="0" keepClear="true" to="835" toLane="0"/>
	<connection contPos="-4.0" from="975" fromLane="0" keepClear="true" to="851" toLane="1"/>
	<connection contPos="-4.0" from="976" fromLane="0" keepClear="true" to="875" toLane="0"/>
	<connection contPos="-4.0" from="1005" fromLane="1" keepClear="true" to="908" toLane="1"/>
	<connection contPos="-4.0" from="978" fromLane="0" keepClear="true" to="844" toLane="0"/>
	<connection contPos="-4.0" from="979" fromLane="0" keepClear="true" to="864" toLane="0"/>
	<connection contPos="-4.0" from="980" fromLane="0" keepClear="true" to="866" toLane="0"/>
	<connection contPos="-4.0" from="981" fromLane="0" keepClear="true" to="897" toLane="0"/>
	<connection contPos="-4.0" from="982" fromLane="0" keepClear="true" to="914" toLane="0"/>
	<connection contPos="-4.0" from="983" fromLane="0" keepClear="true" to="925" toLane="1"/>
	<connection contPos="-4.0" from="984" fromLane="0" keepClear="true" to="912" toLane="0"/>
	<connection contPos="-4.0" from="994" fromLane="1" keepClear="true" to="897" toLane="1"/>
	<connection contPos="-4.0" from="986" fromLane="0" keepClear="true" to="859" toLane="1"/>
	<connection contPos="-4.0" from="987" fromLane="0" keepClear="true" to="853" toLane="0"/>
	<connection contPos="-4.0" from="988" fromLane="0" keepClear="true" to="901" toLane="0"/>
	<connection contPos="-4.0" from="1010" fromLane="1" keepClear="true" to="854" toLane="1"/>
	<connection contPos="-4.0" from="990" fromLane="0" keepClear="true" to="900" toLane="0"/>
	<connection contPos="-4.0" from="991" fromLane="0" keepClear="true" to="840" toLane="1"/>
	<connection contPos="-4.0" from="992" fromLane="0" keepClear="true" to="927" toLane="0"/>
	<connection contPos="-4.0" from="993" fromLane="0" keepClear="true" to="908" toLane="0"/>
	<connection contPos="-4.0" from="994" fromLane="0" keepClear="true" to="897" toLane="0"/>
	<connection contPos="-4.0" from="995" fromLane="0" keepClear="true" to="876" toLane="0"/>
	<connection contPos="-4.0" from="996" fromLane="0" keepClear="true" to="889" toLane="0"/>
	<connection contPos="-4.0" from="997" fromLane="0" keepClear="true" to="921" toLane="0"/>
	<connection contPos="-4.0" from="998" fromLane="0" keepClear="true" to="859" toLane="0"/>
	<connection contPos="-4.0" from="999" fromLane="0" keepClear="true" to="880" toLane="0"/>
	<connection contPos="-4.0" from="1000" fromLane="0" keepClear="true" to="913" toLane="0"/>
	<connection contPos="-4.0" from="1001" fromLane="0" keepClear="true" to="853" toLane="1"/>
	<connection contPos="-4.0" from="1002" fromLane="0" keepClear="true" to="857" toLane="1"/>
	<connection contPos="-4.0" from="1003" fromLane="0" keepClear="true" to="907" toLane="0"/>
	<connection contPos="-4.0" from="942" fromLane="1" keepClear="true" to="899" toLane="1"/>
	<connection contPos="-4.0" from="1005" fromLane="0" keepClear="true" to="908" toLane="0"/>
	<connection contPos="-4.0" from="929" fromLane="1" keepClear="true" to="927" toLane="1"/>
	<connection contPos="-4.0" from="1007" fromLane="0" keepClear="true" to="833" toLane="0"/>
	<connection contPos="-4.0" from="947" fromLane="1" keepClear="true" to="904" toLane="1"/>
	<connection contPos="-4.0" from="1009" fromLane="0" keepClear="true" to="849" toLane="0"/>
	<connection contPos="-4.0" from="1010" fromLane="0" keepClear="true" to="854" toLane="0"/>
	<connection contPos="-4.0" from="1011" fromLane="0" keepClear="true" to="884" toLane="0"/>
	<connection contPos="-4.0" from="1012" fromLane="0" keepClear="true" to="923" toLane="0"/>
	<connection contPos="-4.0" from="1013" fromLane="0" keepClear="true" to="875" toLane="1"/>
	<connection contPos="-4.0" from="1014" fromLane="0" keepClear="true" to="844" toLane="0"/>
	<connection contPos="-4.0" from="1015" fromLane="0" keepClear="true" to="869" toLane="0"/>
	<connection contPos="-4.0" from="1016" fromLane="0" keepClear="true" to="883" toLane="0"/>
	<connection contPos="-4.0" from="1017" fromLane="0" keepClear="true" to="899" toLane="1"/>
	<connection contPos="-4.0" from="1018" fromLane="0" keepClear="true" to="880" toLane="0"/>
	<connection contPos="-4.0" from="1019" fromLane="0" keepClear="true" to="870" toLane="0"/>
	<connection contPos="-4.0" from="1020" fromLane="0" keepClear="true" to="857" toLane="0"/>
	<connection contPos="-4.0" from="1021" fromLane="0" keepClear="true" to="860" toLane="1"/>
	<connection contPos="-4.0" from="1022" fromLane="0" keepClear="true" to="854" toLane="1"/>
	<connection contPos="-4.0" from="1037" fromLane="1" keepClear="true" to="923" toLane="1"/>
	<connection contPos="-4.0" from="1019" fromLane="1" keepClear="true" to="870" toLane="1"/>
	<connection contPos="-4.0" from="1025" fromLane="0" keepClear="true" to="886" toLane="0"/>
	<connection contPos="-4.0" from="1026" fromLane="0" keepClear="true" to="834" toLane="0"/>
	<connection contPos="-4.0" from="1016" fromLane="1" keepClear="true" to="883" toLane="1"/>
	<connection contPos="-4.0" from="1028" fromLane="0" keepClear="true" to="901" toLane="0"/>
	<connection contPos="-4.0" from="1020" fromLane="1" keepClear="true" to="857" toLane="1"/>
	<connection contPos="-4.0" from="1030" fromLane="0" keepClear="true" to="916" toLane="0"/>
	<connection contPos="-4.0" from="1059" fromLane="1" keepClear="true" to="860" toLane="1"/>
	<connection contPos="-4.0" from="1032" fromLane="0" keepClear="true" to="915" toLane="0"/>
	<connection contPos="-4.0" from="1033" fromLane="0" keepClear="true" to="859" toLane="0"/>
	<connection contPos="-4.0" from="1034" fromLane="0" keepClear="true" to="848" toLane="0"/>
	<connection contPos="-4.0" from="1035" fromLane="0" keepClear="true" to="919" toLane="0"/>
	<connection contPos="-4.0" from="1036" fromLane="0" keepClear="true" to="847" toLane="0"/>
	<connection contPos="-4.0" from="1037" fromLane="0" keepClear="true" to="923" toLane="0"/>
	<connection contPos="-4.0" from="1038" fromLane="0" keepClear="true" to="844" toLane="1"/>
	<connection contPos="-4.0" from="1048" fromLane="1" keepClear="true" to="919" toLane="1"/>
	<connection contPos="-4.0" from="1040" fromLane="0" keepClear="true" to="900" toLane="0"/>
	<connection contPos="-4.0" from="1041" fromLane="0" keepClear="true" to="886" toLane="1"/>
	<connection contPos="-4.0" from="1042" fromLane="0" keepClear="true" to="835" toLane="0"/>
	<connection contPos="-4.0" from="1063" fromLane="1" keepClear="true" to="869" toLane="1"/>
	<connection contPos="-4.0" from="1044" fromLane="0" keepClear="true" to="865" toLane="0"/>
	<connection contPos="-4.0" from="1053" fromLane="1" keepClear="true" to="916" toLane="1"/>
	<connection contPos="-4.0" from="1042" fromLane="1" keepClear="true" to="835" toLane="1"/>
	<connection contPos="-4.0" from="1047" fromLane="0" keepClear="true" to="894" toLane="1"/>
	<connection contPos="-4.0" from="1048" fromLane="0" keepClear="true" to="919" toLane="0"/>
	<connection contPos="-4.0" from="1049" fromLane="0" keepClear="true" to="840" toLane="0"/>
	<connection contPos="-4.0" from="1050" fromLane="0" keepClear="true" to="903" toLane="0"/>
	<connection contPos="-4.0" from="1033" fromLane="1" keepClear="true" to="859" toLane="1"/>
	<connection contPos="-4.0" from="1052" fromLane="0" keepClear="true" to="900" toLane="0"/>
	<connection contPos="-4.0" from="1053" fromLane="0" keepClear="true" to="916" toLane="0"/>
	<connection contPos="-4.0" from="1054" fromLane="0" keepClear="true" to="899" toLane="0"/>
	<connection contPos="-4.0" from="1055" fromLane="0" keepClear="true" to="885" toLane="0"/>
	<connection contPos="-4.0" from="1056" fromLane="0" keepClear="true" to="853" toLane="0"/>
	<connection contPos="-4.0" from="1057" fromLane="0" keepClear="true" to="912" toLane="0"/>
	<connection contPos="-4.0" from="1058" fromLane="0" keepClear="true" to="894" toLane="0"/>
	<connection contPos="-4.0" from="1059" fromLane="0" keepClear="true" to="860" toLane="0"/>
	<connection contPos="-4.0" from="1060" fromLane="0" keepClear="true" to="847" toLane="0"/>
	<connection contPos="-4.0" from="1061" fromLane="0" keepClear="true" to="881" toLane="0"/>
	<connection contPos="-4.0" from="1062" fromLane="0" keepClear="true" to="883" toLane="1"/>
	<connection contPos="-4.0" from="1063" fromLane="0" keepClear="true" to="869" toLane="0"/>
</connections>
