<!-- generated on 2020-12-18 16:48:03.162222 by ipykernel_launcher.py v1_2_0+5214-53edc58fcd
-->
<edges>
	<edge from="1" function="normal" id="833" length="118.00154619451054" numLanes="1" priority="1" speed="36.11111111111111" spreadType="center" to="2">
		<lane allow="moped bicycle pedestrian custom1 trailer evehicle rail_urban ship private vip custom2 authority delivery rail_electric taxi tram army hov coach motorcycle passenger rail emergency" index="0" length="118.00154619451054" shape="144.4216,218.6996 143.32344999999998,216.45025 91.3798,113.29140000000001" speed="36.11111111111111" width="2.4970624741884238"/>
	</edge>
	<edge from="3" function="normal" id="834" length="118.07649198462524" numLanes="1" priority="1" speed="36.11111111111111" spreadType="center" to="4">
		<lane allow="moped bicycle pedestrian custom1 trailer evehicle rail_urban ship private vip custom2 authority delivery rail_electric taxi tram army hov coach motorcycle passenger rail emergency" index="0" length="118.07649198462524" shape="93.60805,112.16225 145.5669,215.34715 146.684,217.63715000000002" speed="36.11111111111111" width="2.4993008022244987"/>
	</edge>
	<edge from="5" function="normal" id="835" length="178.73363064561602" numLanes="2" priority="1" speed="36.11111111111111" spreadType="center" to="6">
		<lane allow="moped bicycle pedestrian custom1 trailer evehicle rail_urban ship private vip custom2 authority delivery rail_electric taxi tram army hov coach motorcycle passenger rail emergency" index="0" length="178.73363064561602" shape="-50.49005,112.00355 -62.03905,112.27260000000001 -218.74419999999998,114.9996 -229.2227,114.98455" speed="36.11111111111111" width="2.3505077940734296"/>
		<lane allow="moped bicycle pedestrian custom1 trailer evehicle rail_urban ship private vip custom2 authority delivery rail_electric taxi tram army hov coach motorcycle passenger rail emergency" index="1" length="178.73363064561602" shape="-50.547,109.5042 -62.08845,109.7731 -218.7308,112.4995 -229.25375000000003,112.47725" speed="36.11111111111111" width="2.5000116899726774"/>
	</edge>
	<edge from="7" function="normal" id="838" length="178.31688831878745" numLanes="2" priority="1" speed="36.11111111111111" spreadType="center" to="8">
		<lane allow="moped bicycle pedestrian custom1 trailer evehicle rail_urban ship private vip custom2 authority delivery rail_electric taxi tram army hov coach motorcycle passenger rail emergency" index="0" length="178.31688831878745" shape="-228.96640000000002,107.53035 -218.72175,107.49934999999999 -62.206450000000004,104.7744 -50.6764,104.50604999999999" speed="36.11111111111111" width="2.4991236003847397"/>
		<lane allow="moped bicycle pedestrian custom1 trailer evehicle rail_urban ship private vip custom2 authority delivery rail_electric taxi tram army hov coach motorcycle passenger rail emergency" index="1" length="178.31688831878745" shape="-229.25025,109.96100000000001 -218.7263,109.9994 -62.147450000000006,107.27375 -50.59985,107.0045" speed="36.11111111111111" width="2.387341402062139"/>
	</edge>
	<edge from="9" function="normal" id="840" length="34.23910169897225" numLanes="2" priority="1" speed="36.11111111111111" spreadType="center" to="10">
		<lane allow="moped bicycle pedestrian custom1 trailer evehicle rail_urban ship private truck vip custom2 authority delivery rail_electric taxi tram army hov coach motorcycle passenger bus rail emergency" index="0" length="34.23910169897225" shape="-64.4138,20.4 -58.33165,36.4 -52.2487,52.405100000000004" speed="36.11111111111111" width="2.497750059553589"/>
		<lane allow="moped bicycle pedestrian custom1 trailer evehicle rail_urban ship private truck vip custom2 authority delivery rail_electric taxi tram army hov coach motorcycle passenger bus rail emergency" index="1" length="34.23910169897225" shape="-66.75645,21.27015 -60.66855,37.2882 -54.5784,53.30970000000001" speed="36.11111111111111" width="2.500000169999996"/>
	</edge>
	<edge from="11" function="normal" id="841" length="22.76208793782855" numLanes="2" priority="1" speed="36.11111111111111" spreadType="center" to="12">
		<lane allow="moped bicycle pedestrian custom1 trailer evehicle rail_urban ship private vip custom2 authority delivery rail_electric taxi tram army hov coach motorcycle passenger rail emergency" index="0" length="22.76208793782855" shape="120.7483,97.9419 114.3793,100.33574999999999 106.41975,102.9364 98.84645,105.03444999999999" speed="36.11111111111111" width="2.499823965802406"/>
		<lane allow="moped bicycle pedestrian custom1 trailer evehicle rail_urban ship private vip custom2 authority delivery rail_electric taxi tram army hov coach motorcycle passenger rail emergency" index="1" length="22.76208793782855" shape="119.87045,95.6011 113.593,97.9624 105.73785,100.53115 98.2302,102.61215" speed="36.11111111111111" width="2.499941033304577"/>
	</edge>
	<edge from="13" function="normal" id="844" length="22.15936584917639" numLanes="2" priority="1" speed="36.11111111111111" spreadType="center" to="14">
		<lane allow="moped bicycle pedestrian custom1 trailer evehicle rail_urban ship private vip custom2 authority delivery rail_electric taxi tram army hov coach motorcycle passenger rail emergency" index="0" length="22.15936584917639" shape="97.0541,97.75305 104.29125,95.7449 111.94925,93.2397 118.1183,90.91815" speed="36.11111111111111" width="2.4997282592313907"/>
		<lane allow="moped bicycle pedestrian custom1 trailer evehicle rail_urban ship private vip custom2 authority delivery rail_electric taxi tram army hov coach motorcycle passenger rail emergency" index="1" length="22.15936584917639" shape="97.6437,100.18205 105.01455,98.13804999999999 112.7711,95.60104999999999 118.99435,93.25965" speed="36.11111111111111" width="2.4995836793354274"/>
	</edge>
	<edge from="15" function="normal" id="845" length="68.93252271138813" numLanes="1" priority="1" speed="36.11111111111111" spreadType="center" to="16">
		<lane allow="moped bicycle pedestrian custom1 trailer evehicle rail_urban ship private vip custom2 authority delivery rail_electric taxi tram army hov coach motorcycle passenger rail emergency" index="0" length="68.93252271138813" shape="-65.51785000000001,-193.31235 -79.01345,-188.92025 -91.86165,-184.20710000000003 -111.2991,-176.8535 -118.485,-174.37279999999998 -122.63785,-172.48755 -129.9053,-168.8879" speed="36.11111111111111" width="2.49719446579557"/>
	</edge>
	<edge from="17" function="normal" id="846" length="0.2950113447344894" numLanes="1" priority="1" speed="36.11111111111111" spreadType="center" to="18">
		<lane allow="moped bicycle pedestrian custom1 trailer evehicle rail_urban ship private vip custom2 authority delivery rail_electric taxi tram army hov coach motorcycle passenger rail emergency" index="0" length="0.2950113447344894" shape="-161.66005,-62.43344999999999 -161.54629999999997,-62.363550000000004 -161.41680000000002,-62.26705" speed="36.11111111111111" width="2.499991001983805"/>
	</edge>
	<edge from="19" function="normal" id="847" length="0.2405129655755851" numLanes="1" priority="1" speed="36.11111111111111" spreadType="center" to="20">
		<lane allow="moped bicycle pedestrian custom1 trailer evehicle rail_urban ship private vip custom2 authority delivery rail_electric taxi tram army hov coach motorcycle passenger rail emergency" index="0" length="0.2405129655755851" shape="-162.7575,-60.19035 -162.85535,-60.23365 -162.96910000000003,-60.30355" speed="36.11111111111111" width="2.4454777058889765"/>
	</edge>
	<edge from="21" function="normal" id="848" length="87.65741749796408" numLanes="1" priority="1" speed="36.11111111111111" spreadType="center" to="22">
		<lane allow="moped bicycle pedestrian custom1 trailer evehicle rail_urban ship private truck vip custom2 authority delivery rail_electric taxi tram army hov coach motorcycle passenger bus rail emergency" index="0" length="87.65741749796408" shape="19.26025,-22.92025 -20.83365,-5.2108 -60.9239,12.4962" speed="36.11111111111111" width="2.499182926478171"/>
	</edge>
	<edge from="23" function="normal" id="849" length="87.68615980937426" numLanes="1" priority="1" speed="36.11111111111111" spreadType="center" to="24">
		<lane allow="moped bicycle pedestrian custom1 trailer evehicle rail_urban ship private truck vip custom2 authority delivery rail_electric taxi tram army hov coach motorcycle passenger bus rail emergency" index="0" length="87.68615980937426" shape="-61.930949999999996,10.209900000000001 -21.84375,-7.49765 18.2791,-25.21905" speed="36.11111111111111" width="2.49895050171067"/>
	</edge>
	<edge from="25" function="normal" id="851" length="109.6890774713556" numLanes="2" priority="1" speed="36.11111111111111" spreadType="center" to="26">
		<lane allow="moped bicycle pedestrian custom1 trailer evehicle rail_urban ship private truck vip custom2 authority delivery rail_electric taxi tram army hov coach motorcycle passenger bus rail emergency" index="0" length="109.6890774713556" shape="33.3856,282.2686 52.334599999999995,333.7306 71.2864,385.20169999999996" speed="36.11111111111111" width="2.4981641018956275"/>
		<lane allow="moped bicycle pedestrian custom1 trailer evehicle rail_urban ship private truck vip custom2 authority delivery rail_electric taxi tram army hov coach motorcycle passenger bus rail emergency" index="1" length="109.6890774713556" shape="31.034100000000002,283.11469999999997 49.988600000000005,334.5944 68.9404,386.06550000000004" speed="36.11111111111111" width="2.4999732878572782"/>
	</edge>
	<edge from="27" function="normal" id="853" length="61.49286445108315" numLanes="2" priority="1" speed="36.11111111111111" spreadType="center" to="28">
		<lane allow="moped bicycle pedestrian custom1 trailer evehicle rail_urban ship private truck vip custom2 authority delivery rail_electric taxi tram army hov coach motorcycle passenger bus rail emergency" index="0" length="61.49286445108315" shape="-132.4742,-159.1242 -121.7884,-130.29340000000002 -111.10095,-101.4573" speed="36.11111111111111" width="2.499991631986008"/>
		<lane allow="moped bicycle pedestrian custom1 trailer evehicle rail_urban ship private truck vip custom2 authority delivery rail_electric taxi tram army hov coach motorcycle passenger bus rail emergency" index="1" length="61.49286445108315" shape="-134.8184,-158.25619999999998 -124.1326,-129.4246 -113.4478,-100.59625" speed="36.11111111111111" width="2.499564692101412"/>
	</edge>
	<edge from="29" function="normal" id="854" length="0.2246866152121208" numLanes="2" priority="1" speed="36.11111111111111" spreadType="center" to="30">
		<lane allow="moped bicycle pedestrian custom1 trailer evehicle rail_urban ship private vip custom2 authority delivery rail_electric taxi tram army hov coach motorcycle passenger rail emergency" index="0" length="0.2246866152121208" shape="-34.4351,111.4039 -34.56535,111.41415 -34.71385,111.42205" speed="36.11111111111111" width="2.5000114599737446"/>
		<lane allow="moped bicycle pedestrian custom1 trailer evehicle rail_urban ship private vip custom2 authority delivery rail_electric taxi tram army hov coach motorcycle passenger rail emergency" index="1" length="0.2246866152121208" shape="-34.6297,108.9108 -34.74005,108.92025 -34.8538,108.9267" speed="36.11111111111111" width="2.4948311125204463"/>
	</edge>
	<edge from="31" function="normal" id="857" length="0.24879669183533268" numLanes="2" priority="1" speed="36.11111111111111" spreadType="center" to="32">
		<lane allow="moped bicycle pedestrian custom1 trailer evehicle rail_urban ship private vip custom2 authority delivery rail_electric taxi tram army hov coach motorcycle passenger rail emergency" index="0" length="0.24879669183533268" shape="-35.23165,103.94375 -35.0894,103.93245 -34.9344,103.9235" speed="36.11111111111111" width="2.5000044739959932"/>
		<lane allow="moped bicycle pedestrian custom1 trailer evehicle rail_urban ship private vip custom2 authority delivery rail_electric taxi tram army hov coach motorcycle passenger rail emergency" index="1" length="0.24879669183533268" shape="-35.03765,106.4371 -34.91475,106.42635 -34.78955,106.4188" speed="36.11111111111111" width="2.4969599215846485"/>
	</edge>
	<edge from="33" function="normal" id="859" length="34.90057888260223" numLanes="2" priority="1" speed="36.11111111111111" spreadType="center" to="34">
		<lane allow="moped bicycle pedestrian custom1 trailer evehicle rail_urban ship private truck vip custom2 authority delivery rail_electric taxi tram army hov coach motorcycle passenger bus rail emergency" index="0" length="34.90057888260223" shape="-46.6149,66.28975 -39.6717,82.30510000000001 -32.73385,98.31110000000001" speed="36.11111111111111" width="2.4957675713094765"/>
		<lane allow="moped bicycle pedestrian custom1 trailer evehicle rail_urban ship private truck vip custom2 authority delivery rail_electric taxi tram army hov coach motorcycle passenger bus rail emergency" index="1" length="34.90057888260223" shape="-48.911699999999996,67.27680000000001 -41.965450000000004,83.2995 -35.02105,99.31545" speed="36.11111111111111" width="2.4999782099050325"/>
	</edge>
	<edge from="35" function="normal" id="860" length="32.03049477300396" numLanes="2" priority="1" speed="36.11111111111111" spreadType="center" to="36">
		<lane allow="moped bicycle pedestrian custom1 trailer evehicle rail_urban ship private truck vip custom2 authority delivery rail_electric taxi tram army hov coach motorcycle passenger bus rail emergency" index="0" length="32.03049477300396" shape="-162.2812,-51.39985 -174.0552,-40.5316 -185.82335,-29.6689" speed="36.11111111111111" width="2.4999256708950237"/>
		<lane allow="moped bicycle pedestrian custom1 trailer evehicle rail_urban ship private truck vip custom2 authority delivery rail_electric taxi tram army hov coach motorcycle passenger bus rail emergency" index="1" length="32.03049477300396" shape="-163.98275,-53.231350000000006 -175.75085,-42.3686 -187.51905,-31.505899999999997" speed="36.11111111111111" width="2.4998384947832033"/>
	</edge>
	<edge from="37" function="normal" id="863" length="32.00428778505064" numLanes="2" priority="1" speed="36.11111111111111" spreadType="center" to="38">
		<lane allow="moped bicycle pedestrian custom1 trailer evehicle rail_urban ship private truck vip custom2 authority delivery rail_electric taxi tram army hov coach motorcycle passenger bus rail emergency" index="0" length="32.00428778505064" shape="-190.91039999999998,-35.18 -179.14225,-46.042699999999996 -167.3627,-56.9137" speed="36.11111111111111" width="2.4929277967883503"/>
		<lane allow="moped bicycle pedestrian custom1 trailer evehicle rail_urban ship private truck vip custom2 authority delivery rail_electric taxi tram army hov coach motorcycle passenger bus rail emergency" index="1" length="32.00428778505064" shape="-189.21474999999998,-33.34295 -177.44655,-44.205650000000006 -165.69869999999997,-55.0517" speed="36.11111111111111" width="2.5000669791027517"/>
	</edge>
	<edge from="39" function="normal" id="864" length="34.52975777994294" numLanes="1" priority="1" speed="36.11111111111111" spreadType="center" to="40">
		<lane allow="moped bicycle pedestrian custom1 trailer evehicle rail_urban ship private truck vip custom2 authority delivery rail_electric taxi tram army hov coach motorcycle passenger bus rail emergency" index="0" length="34.52975777994294" shape="41.7785,11.4546 34.6339,-4.2612000000000005 27.488149999999997,-19.979300000000002" speed="36.11111111111111" width="2.4989759042455764"/>
	</edge>
	<edge from="41" function="normal" id="865" length="34.580378358975246" numLanes="1" priority="1" speed="36.11111111111111" spreadType="center" to="42">
		<lane allow="moped bicycle pedestrian custom1 trailer evehicle rail_urban ship private truck vip custom2 authority delivery rail_electric taxi tram army hov coach motorcycle passenger bus rail emergency" index="0" length="34.580378358975246" shape="29.74855,-21.04555 36.90975,-5.2958 44.060249999999996,10.43425" speed="36.11111111111111" width="2.500023593888666"/>
	</edge>
	<edge from="43" function="normal" id="866" length="35.55669930048562" numLanes="2" priority="1" speed="36.11111111111111" spreadType="center" to="44">
		<lane allow="moped bicycle pedestrian custom1 trailer evehicle rail_urban ship private vip custom2 authority delivery rail_electric taxi tram army hov coach motorcycle passenger rail emergency" index="0" length="35.55669930048562" shape="-123.40215,-83.92305 -126.0668,-82.65135000000001 -129.91424999999998,-80.43005 -133.15345000000002,-78.17054999999999 -137.3852,-74.76625 -142.5416,-70.1626 -151.0731,-61.9118" speed="36.11111111111111" width="2.4997186441677837"/>
		<lane allow="moped bicycle pedestrian custom1 trailer evehicle rail_urban ship private vip custom2 authority delivery rail_electric taxi tram army hov coach motorcycle passenger rail emergency" index="1" length="35.55669930048562" shape="-124.41985,-86.20625000000001 -127.23320000000001,-84.86115000000001 -131.22065,-82.56084999999999 -134.5743,-80.22905 -138.9135,-76.7473 -144.1755,-72.05699999999999 -152.80385,-63.71555" speed="36.11111111111111" width="2.4995557885352206"/>
	</edge>
	<edge from="45" function="normal" id="869" length="37.291322299601084" numLanes="2" priority="1" speed="36.11111111111111" spreadType="center" to="46">
		<lane allow="moped bicycle pedestrian custom1 trailer evehicle rail_urban ship private vip custom2 authority delivery rail_electric taxi tram army hov coach motorcycle passenger rail emergency" index="0" length="37.291322299601084" shape="-156.29085,-67.2985 -147.19475,-76.07705 -141.6438,-80.98415 -137.05065000000002,-84.618 -133.49970000000002,-87.03525 -129.31765000000001,-89.41245 -126.45519999999999,-90.77305" speed="36.11111111111111" width="2.4990218106291073"/>
		<lane allow="moped bicycle pedestrian custom1 trailer evehicle rail_urban ship private vip custom2 authority delivery rail_electric taxi tram army hov coach motorcycle passenger rail emergency" index="1" length="37.291322299601084" shape="-154.53115,-65.523 -145.68555,-74.06684999999999 -140.27915000000002,-78.86580000000001 -135.81305,-82.4239 -132.3598,-84.7988 -128.27485000000001,-87.13714999999999 -125.4258,-88.49504999999999" speed="36.11111111111111" width="2.500352049212265"/>
	</edge>
	<edge from="47" function="normal" id="870" length="0.20051130576686116" numLanes="2" priority="1" speed="36.11111111111111" spreadType="center" to="48">
		<lane allow="moped bicycle pedestrian custom1 trailer evehicle rail_urban ship private vip custom2 authority delivery rail_electric taxi tram army hov coach motorcycle passenger rail emergency" index="0" length="0.20051130576686116" shape="-238.3715,107.44309999999999 -238.3441,107.38005000000001 -238.3539,107.24865" speed="36.11111111111111" width="2.3132632967303848"/>
		<lane allow="moped bicycle pedestrian custom1 trailer evehicle rail_urban ship private vip custom2 authority delivery rail_electric taxi tram army hov coach motorcycle passenger rail emergency" index="1" length="0.20051130576686116" shape="-235.8203,107.33375 -235.85105,107.19395 -235.86085,107.06255" speed="36.11111111111111" width="2.500036163738436"/>
	</edge>
	<edge from="49" function="normal" id="873" length="0.2634264495095532" numLanes="2" priority="1" speed="36.11111111111111" spreadType="center" to="50">
		<lane allow="moped bicycle pedestrian custom1 trailer evehicle rail_urban ship private vip custom2 authority delivery rail_electric taxi tram army hov coach motorcycle passenger rail emergency" index="0" length="0.2634264495095532" shape="-230.8747,106.69035 -230.8649,106.82175000000001 -231.20800000000003,106.44720000000001" speed="36.11111111111111" width="2.3405641456708657"/>
		<lane allow="moped bicycle pedestrian custom1 trailer evehicle rail_urban ship private vip custom2 authority delivery rail_electric taxi tram army hov coach motorcycle passenger rail emergency" index="1" length="0.2634264495095532" shape="-233.36775,106.87645 -233.35795000000002,107.00784999999999 -233.34820000000002,107.13915" speed="36.11111111111111" width="2.2486623779482624"/>
	</edge>
	<edge from="51" function="normal" id="875" length="101.45854648893797" numLanes="2" priority="1" speed="36.11111111111111" spreadType="center" to="52">
		<lane allow="moped bicycle pedestrian custom1 trailer evehicle rail_urban ship private truck vip custom2 authority delivery rail_electric taxi tram army hov coach motorcycle passenger bus rail emergency" index="0" length="101.45854648893797" shape="-76.027,11.959800000000001 -95.07445,-35.0623 -114.11815,-82.0769" speed="36.11111111111111" width="2.498315066199623"/>
		<lane allow="moped bicycle pedestrian custom1 trailer evehicle rail_urban ship private truck vip custom2 authority delivery rail_electric taxi tram army hov coach motorcycle passenger bus rail emergency" index="1" length="101.45854648893797" shape="-73.71085,11.0189 -92.75729999999999,-36.0009 -111.80635,-83.02605" speed="36.11111111111111" width="2.4999275849512093"/>
	</edge>
	<edge from="53" function="normal" id="876" length="195.28323704927328" numLanes="1" priority="1" speed="36.11111111111111" spreadType="center" to="54">
		<lane allow="moped bicycle pedestrian custom1 trailer evehicle rail_urban ship private vip custom2 authority delivery rail_electric taxi tram army hov coach motorcycle passenger rail emergency" index="0" length="195.28323704927328" shape="-151.5419,-158.1763 -152.0263,-158.01855 -158.7626,-156.0174 -166.56529999999998,-154.11505 -192.11415,-148.7611 -221.18535,-143.0969 -343.23159999999996,-121.20785000000001" speed="36.11111111111111" width="2.499796191692438"/>
	</edge>
	<edge from="55" function="normal" id="877" length="194.94024811418709" numLanes="1" priority="1" speed="36.11111111111111" spreadType="center" to="56">
		<lane allow="moped bicycle pedestrian custom1 trailer evehicle rail_urban ship private vip custom2 authority delivery rail_electric taxi tram army hov coach motorcycle passenger rail emergency" index="0" length="194.94024811418709" shape="-343.68089999999995,-123.6671 -221.7453,-145.5354 -192.71589999999998,-151.19 -167.21595,-156.5315 -159.46895,-158.41575 -152.78285,-160.40115 -152.32295,-160.54975000000002" speed="36.11111111111111" width="2.499509171817551"/>
	</edge>
	<edge from="57" function="normal" id="879" length="81.82277851729268" numLanes="2" priority="1" speed="36.11111111111111" spreadType="center" to="58">
		<lane allow="moped bicycle pedestrian custom1 trailer evehicle rail_urban ship private vip custom2 authority delivery rail_electric taxi tram army hov coach motorcycle passenger rail emergency" index="0" length="81.82277851729268" shape="50.622150000000005,362.17625 33.598299999999995,310.68885 27.179650000000002,292.2034 24.4207,284.66665" speed="36.11111111111111" width="2.4981302708225614"/>
		<lane allow="moped bicycle pedestrian custom1 trailer evehicle rail_urban ship private vip custom2 authority delivery rail_electric taxi tram army hov coach motorcycle passenger rail emergency" index="1" length="81.82277851729268" shape="52.9949,361.38885 35.956599999999995,309.85875 29.5275,291.3446 26.76105,283.79049999999995" speed="36.11111111111111" width="2.499943713366374"/>
	</edge>
	<edge from="59" function="normal" id="880" length="90.55783317323454" numLanes="1" priority="1" speed="36.11111111111111" spreadType="center" to="60">
		<lane allow="moped bicycle pedestrian custom1 trailer evehicle rail_urban ship private truck vip custom2 authority delivery rail_electric taxi tram army hov coach motorcycle passenger bus rail emergency" index="0" length="90.55783317323454" shape="-44.056,55.845 -2.59135,37.68955 38.8988,19.523899999999998" speed="36.11111111111111" width="2.4991406042878017"/>
	</edge>
	<edge from="61" function="normal" id="881" length="90.5563531482631" numLanes="1" priority="1" speed="36.11111111111111" spreadType="center" to="62">
		<lane allow="moped bicycle pedestrian custom1 trailer evehicle rail_urban ship private truck vip custom2 authority delivery rail_electric taxi tram army hov coach motorcycle passenger bus rail emergency" index="0" length="90.5563531482631" shape="39.9032,21.81195 -1.58865,39.97965 -43.05005,58.1329" speed="36.11111111111111" width="2.4984511542153482"/>
	</edge>
	<edge from="63" function="normal" id="883" length="157.06858618615885" numLanes="2" priority="1" speed="36.11111111111111" spreadType="center" to="64">
		<lane allow="moped bicycle pedestrian custom1 trailer evehicle rail_urban ship private truck vip custom2 authority delivery rail_electric taxi tram army hov coach motorcycle passenger bus rail emergency" index="0" length="157.06858618615885" shape="-25.39745,117.0726 0.8861499999999999,191.07815 27.1688,265.08385" speed="36.11111111111111" width="2.498277736761871"/>
		<lane allow="moped bicycle pedestrian custom1 trailer evehicle rail_urban ship private truck vip custom2 authority delivery rail_electric taxi tram army hov coach motorcycle passenger bus rail emergency" index="1" length="157.06858618615885" shape="-27.75445,117.90405000000001 -1.4697,191.91485 24.81925,265.935" speed="36.11111111111111" width="2.4999721058443862"/>
	</edge>
	<edge from="65" function="normal" id="884" length="0.26370966897795894" numLanes="1" priority="1" speed="36.11111111111111" spreadType="center" to="66">
		<lane allow="moped bicycle pedestrian custom1 trailer evehicle rail_urban ship private vip custom2 authority delivery rail_electric taxi tram army hov coach motorcycle passenger rail emergency" index="0" length="0.26370966897795894" shape="-53.925200000000004,59.9384 -53.80785,59.88335 -53.67515,59.8641" speed="36.11111111111111" width="2.4781988398835177"/>
	</edge>
	<edge from="67" function="normal" id="885" length="0.2661257637057952" numLanes="1" priority="1" speed="36.11111111111111" spreadType="center" to="68">
		<lane allow="moped bicycle pedestrian custom1 trailer evehicle rail_urban ship private vip custom2 authority delivery rail_electric taxi tram army hov coach motorcycle passenger rail emergency" index="0" length="0.2661257637057952" shape="-52.85445,62.17065 -52.977999999999994,62.2416 -53.098299999999995,62.2702" speed="36.11111111111111" width="2.4775334710150756"/>
	</edge>
	<edge from="69" function="normal" id="886" length="0.12418184107663163" numLanes="2" priority="1" speed="36.11111111111111" spreadType="center" to="70">
		<lane allow="moped bicycle pedestrian custom1 trailer evehicle rail_urban ship private vip custom2 authority delivery rail_electric taxi tram army hov coach motorcycle passenger rail emergency" index="0" length="0.12418184107663163" shape="-111.48445000000001,-89.03845 -111.66900000000001,-88.94120000000001 -111.8341,-88.87190000000001" speed="36.11111111111111" width="2.473564411936753"/>
		<lane allow="moped bicycle pedestrian custom1 trailer evehicle rail_urban ship private vip custom2 authority delivery rail_electric taxi tram army hov coach motorcycle passenger rail emergency" index="1" length="0.12418184107663163" shape="-112.69645,-91.2244 -112.71555000000001,-91.2116 -112.8101,-91.17555" speed="36.11111111111111" width="2.4996139241890853"/>
	</edge>
	<edge from="71" function="normal" id="889" length="0.25994427991148883" numLanes="2" priority="1" speed="36.11111111111111" spreadType="center" to="72">
		<lane allow="moped bicycle pedestrian custom1 trailer evehicle rail_urban ship private vip custom2 authority delivery rail_electric taxi tram army hov coach motorcycle passenger rail emergency" index="0" length="0.25994427991148883" shape="-114.9388,-95.6845 -114.80869999999999,-95.7524 -114.5059,-95.85795" speed="36.11111111111111" width="2.5000175439384495"/>
		<lane allow="moped bicycle pedestrian custom1 trailer evehicle rail_urban ship private vip custom2 authority delivery rail_electric taxi tram army hov coach motorcycle passenger rail emergency" index="1" length="0.25994427991148883" shape="-113.83775,-93.4402 -113.7621,-93.482 -113.5975,-93.5369" speed="36.11111111111111" width="2.476677750535982"/>
	</edge>
	<edge from="73" function="normal" id="891" length="199.20615892875207" numLanes="2" priority="1" speed="36.11111111111111" spreadType="center" to="74">
		<lane allow="moped bicycle pedestrian custom1 trailer evehicle rail_urban ship private vip custom2 authority delivery rail_electric taxi tram army hov coach motorcycle passenger rail emergency" index="0" length="199.20615892875207" shape="-166.9245,-367.93865000000005 -166.83625,-348.82785 -166.8231,-313.1532 -166.4848,-295.08505 -165.86135,-280.07795 -165.17245,-272.61285 -164.15994999999998,-264.7018 -162.6232,-256.34965 -160.49875,-247.0885 -157.73309999999998,-236.9361 -152.19485,-218.67325 -146.03275,-199.53775000000002 -137.23025,-172.79625" speed="36.11111111111111" width="2.499960185682957"/>
		<lane allow="moped bicycle pedestrian custom1 trailer evehicle rail_urban ship private vip custom2 authority delivery rail_electric taxi tram army hov coach motorcycle passenger rail emergency" index="1" length="199.20615892875207" shape="-169.4244,-367.91875000000005 -169.3363,-348.7769 -169.32184999999998,-313.0114 -168.97969999999998,-294.88025 -168.34705,-279.7817 -167.6483,-272.25865 -166.62155,-264.26525000000004 -165.0712,-255.8438 -162.93225,-246.51549999999997 -160.1541,-236.30885 -154.60070000000002,-217.9903 -148.42525,-198.81045 -139.6067,-172.02085" speed="36.11111111111111" width="2.4992973512569563"/>
	</edge>
	<edge from="75" function="normal" id="893" length="204.09671522006585" numLanes="2" priority="1" speed="36.11111111111111" spreadType="center" to="76">