<routes>
	<vehicle depart="0.1" departLane="0" departPos="6.933080147969636" departSpeed="5.6479761" id="334" type="bicycle">
		<route edges=":33_3 37872 37869"/>
	</vehicle>
	<vehicle depart="0.1" departLane="0" departPos="70.64563802317203" departSpeed="0.0" id="38" type="passenger">
		<route edges="38558 37869"/>
	</vehicle>
	<vehicle depart="0.1" departLane="0" departPos="2.5" departSpeed="0.26707172" id="311" type="passenger">
		<route edges=":33_2 38461"/>
	</vehicle>
	<vehicle depart="0.1" departLane="0" departPos="6.646652679578123" departSpeed="0.0" id="315" type="passenger">
		<route edges="38556 38559"/>
	</vehicle>
	<vehicle depart="0.1" departLane="0" departPos="60.89437589969376" departSpeed="7.7486308e-05" id="326" type="passenger">
		<route edges="38558 37869"/>
	</vehicle>
	<vehicle depart="0.1" departLane="0" departPos="18.602389351340804" departSpeed="4.6020608" id="332" type="passenger">
		<route edges=":33_5 37826"/>
	</vehicle>
	<vehicle depart="0.1" departLane="0" departPos="5.866317370002824" departSpeed="6.5067941" id="338" type="passenger">
		<route edges=":33_3 37872"/>
	</vehicle>
	<vehicle depart="0.1" departLane="0" departPos="7.162444891879951" departSpeed="0.11082767" id="342" type="passenger">
		<route edges="38458 37872"/>
	</vehicle>
	<vehicle depart="0.1" departLane="0" departPos="46.19899374733835" departSpeed="8.948546" id="344" type="passenger">
		<route edges="38460 39142"/>
	</vehicle>
	<vehicle depart="0.1" departLane="0" departPos="41.05529410138863" departSpeed="0.0" id="30" type="truck">
		<route edges="37827 38461"/>
	</vehicle>
</routes>
