<routes>
	<vehicle depart="0.1" departLane="0" departPos="9.214829191248162" departSpeed="15.182779" id="31" type="passenger">
		<route edges="60134 60136"/>
	</vehicle>
	<vehicle depart="0.1" departLane="0" departPos="5.667299179381094" departSpeed="5.5314269" id="349" type="passenger">
		<route edges=":105_1 60136"/>
	</vehicle>
	<vehicle depart="0.1" departLane="0" departPos="15.927185873426593" departSpeed="13.573966" id="377" type="passenger">
		<route edges="65151 59304 59063"/>
	</vehicle>
</routes>
