<routes>
	<vehicle depart="0.1" departLane="0" departPos="71.74119424119823" departSpeed="5.5258539" id="1" type="passenger">
		<route edges="50201 50213 50197"/>
	</vehicle>
	<vehicle depart="0.1" departLane="0" departPos="73.9980926802582" departSpeed="3.6205441" id="2" type="passenger">
		<route edges="50195 50211 50199"/>
	</vehicle>
	<vehicle depart="0.1" departLane="0" departPos="146.33393236194001" departSpeed="2.4496894" id="4" type="passenger">
		<route edges="50205 50217 50199"/>
	</vehicle>
	<vehicle depart="0.1" departLane="0" departPos="154.33403633118928" departSpeed="4.1358336" id="5" type="passenger">
		<route edges="50205 50217 50199"/>
	</vehicle>
	<vehicle depart="0.1" departLane="0" departPos="71.74119424119823" departSpeed="1.9299553" id="7" type="passenger">
		<route edges="50201 50213 50197"/>
	</vehicle>
</routes>
