<!-- generated on 2020-12-18 17:02:18.680805 by ipykernel_launcher.py v1_2_0+5214-53edc58fcd
-->
<connections/>
