<!-- generated on 2020-12-18 17:02:18.509346 by ipykernel_launcher.py v1_2_0+5214-53edc58fcd
-->
<edges>
	<edge from="1" function="normal" id="233" length="579.6967212814318" numLanes="2" priority="1" speed="36.11111111111111" spreadType="center" to="2">
		<lane allow="moped bicycle pedestrian custom1 trailer evehicle rail_urban ship private truck vip custom2 authority delivery rail_electric taxi tram army hov coach motorcycle passenger bus rail emergency" index="0" length="579.6967212814318" shape="-311.4847,-471.61469999999997 -160.63240000000002,-408.91235 -134.05985,-398.3997 -92.2081,-381.6451 -73.04325,-374.33385 -57.0343,-368.61715000000004 -42.323449999999994,-363.759 -27.9756,-359.4267 -15.44965,-356.02035 -1.8537499999999998,-352.74 13.3038,-349.51675 32.4888,-345.90414999999996 69.96940000000001,-339.39855 83.82849999999999,-337.40995 117.1962,-333.25565 130.13835,-331.3124 141.04425,-329.31545 153.8213,-326.51345000000003 167.48215,-323.11015 183.45485,-318.69475 199.80045,-313.85395 230.98315000000002,-304.50149999999996 240.1415,-301.89099999999996" speed="36.11111111111111" width="3.4999509482276805"/>
		<lane allow="moped bicycle pedestrian custom1 trailer evehicle rail_urban ship private truck vip custom2 authority delivery rail_electric taxi tram army hov coach motorcycle passenger bus rail emergency" index="1" length="579.6967212814318" shape="-312.82575,-468.3818 -161.8907,-405.64615 -135.31515000000002,-395.1322 -93.4214,-378.3615 -74.21405,-371.0353 -58.1595,-365.30305 -43.400549999999996,-360.42895 -29.00135,-356.08005 -16.4229,-352.6569 -2.7767,-349.3606 12.425450000000001,-346.1232 31.64115,-342.5003 69.18520000000001,-335.97935 83.0806,-333.978 116.41695,-329.8296 129.3096,-327.9024 140.1609,-325.9233 152.89530000000002,-323.1358 166.51835,-319.74475 182.4663,-315.33725 198.812,-310.49635 230.0291,-301.134 239.1908,-298.5226" speed="36.11111111111111" width="3.4999356022646895"/>
	</edge>
</edges>
