<routes>
	<vehicle depart="0.1" departLane="0" departPos="6.199033465764708" departSpeed="11.539514" id="319" type="passenger">
		<route edges="20116 21147 20022"/>
	</vehicle>
	<vehicle depart="0.1" departLane="0" departPos="71.93745755936757" departSpeed="3.1139185e-05" id="336" type="passenger">
		<route edges="20159 20162"/>
	</vehicle>
	<vehicle depart="0.1" departLane="0" departPos="29.247561384723472" departSpeed="0.0" id="341" type="passenger">
		<route edges="20117 19801"/>
	</vehicle>
	<vehicle depart="0.1" departLane="0" departPos="64.43566405834468" departSpeed="0.00035803345" id="346" type="passenger">
		<route edges="20159 20162"/>
	</vehicle>
	<vehicle depart="0.1" departLane="0" departPos="56.93183414800688" departSpeed="0.0024814971" id="348" type="passenger">
		<route edges="20159 20162"/>
	</vehicle>
	<vehicle depart="0.1" departLane="0" departPos="19.408209222258836" departSpeed="2.1501248" id="367" type="passenger">
		<route edges="20117 20120"/>
	</vehicle>
	<vehicle depart="0.1" departLane="0" departPos="49.414449440497904" departSpeed="0.016558981" id="334" type="motorcycle">
		<route edges="20159 20162"/>
	</vehicle>
	<vehicle depart="0.1" departLane="0" departPos="24.743395640320905" departSpeed="3.6927" id="375" type="truck">
		<route edges="20023 21148"/>
	</vehicle>
</routes>
