<routes>
	<vehicle depart="0.1" departLane="0" departPos="16.92995552390954" departSpeed="0.61729287" id="38" type="passenger">
		<route edges="140876 140879"/>
	</vehicle>
	<vehicle depart="0.1" departLane="0" departPos="24.04563735448919" departSpeed="1.1820726" id="39" type="passenger">
		<route edges="140876 140879"/>
	</vehicle>
	<vehicle depart="0.1" departLane="0" departPos="5.761254743568098" departSpeed="1.483091" id="310" type="passenger">
		<route edges="140876 140879"/>
	</vehicle>
	<vehicle depart="0.1" departLane="0" departPos="2.5" departSpeed="9.6374723" id="315" type="passenger">
		<route edges="140881 140952"/>
	</vehicle>
	<vehicle depart="0.1" departLane="0" departPos="20.33260540125124" departSpeed="1.0958143" id="322" type="passenger">
		<route edges=":34_1 140876"/>
	</vehicle>
	<vehicle depart="0.1" departLane="0" departPos="23.4344481551041" departSpeed="7.0643246" id="324" type="passenger">
		<route edges=":34_3 140881 140952"/>
	</vehicle>
	<vehicle depart="0.1" departLane="0" departPos="7.377300209632774" departSpeed="2.7181573" id="325" type="passenger">
		<route edges=":34_1 140876"/>
	</vehicle>
	<vehicle depart="0.1" departLane="0" departPos="23.150036507737113" departSpeed="3.1673918" id="330" type="passenger">
		<route edges="140873 140876 140879"/>
	</vehicle>
	<vehicle depart="0.1" departLane="0" departPos="2.5" departSpeed="4.1649078" id="335" type="passenger">
		<route edges="140873 140876"/>
	</vehicle>
	<vehicle depart="0.1" departLane="0" departPos="11.483280179303504" departSpeed="4.548294" id="333" type="motorcycle">
		<route edges="140873 140876"/>
	</vehicle>
</routes>
