<routes>
	<vehicle depart="0.1" departLane="0" departPos="7.528232444293248" departSpeed="11.045141" id="312" type="passenger">
		<route edges="48063 48343 47943"/>
	</vehicle>
	<vehicle depart="0.1" departLane="0" departPos="10.886535433740338" departSpeed="10.272971" id="315" type="passenger">
		<route edges=":44_5 48063 47783"/>
	</vehicle>
	<vehicle depart="0.1" departLane="0" departPos="17.792267250542753" departSpeed="0.0" id="320" type="passenger">
		<route edges="48064 47996"/>
	</vehicle>
	<vehicle depart="0.1" departLane="0" departPos="7.264212221493118" departSpeed="6.3818714" id="336" type="passenger">
		<route edges="47997 48067"/>
	</vehicle>
	<vehicle depart="0.1" departLane="0" departPos="10.287349961006951" departSpeed="0.004390983" id="323" type="motorcycle">
		<route edges="48064 47996"/>
	</vehicle>
	<vehicle depart="0.1" departLane="0" departPos="15.014704125413083" departSpeed="1.3821359" id="316" type="truck">
		<route edges=":45_0 48066"/>
	</vehicle>
</routes>
